CHEMBL4285366


 26 30  0  0  0  0  0  0  0  0999 V2000
  -25.1511   62.7836  -23.1642 C   0  0  0  0  0
  -23.9251   64.2284  -24.7449 C   0  0  0  0  0
  -22.6250   63.8513  -25.4512 C   0  0  0  0  0
  -23.7136   65.5173  -26.8730 C   0  0  0  0  0
  -24.5522   65.2640  -25.6539 C   0  0  0  0  0
  -24.8829   66.5416  -24.9173 C   0  0  0  0  0
  -25.9925   65.7139  -25.5476 C   0  0  0  0  0
  -21.5001   64.5676  -27.6377 C   0  0  0  0  0
  -20.5939   63.3998  -27.7365 C   0  0  0  0  0
  -19.3768   63.5183  -28.4211 C   0  0  0  0  0
  -18.5361   62.4092  -28.5376 C   0  0  0  0  0
  -20.0803   61.0692  -27.3347 C   0  0  0  0  0
  -20.9469   62.1555  -27.1979 C   0  0  0  0  0
  -25.2538   62.2255  -25.6366 C   0  0  0  0  0
  -25.2705   61.7240  -27.9788 C   0  0  0  0  0
  -26.5059   60.3847  -26.5198 C   0  0  0  0  0
  -26.1103   61.1287  -25.4511 C   0  0  0  0  0
  -26.7002   60.5814  -24.3322 C   0  0  0  0  0
  -27.4390   59.5025  -24.8223 C   0  0  0  0  0
  -24.7902   63.0616  -24.5459 N   0  0  0  0  0
  -22.5859   64.6166  -26.6973 N   0  0  0  0  0
  -18.9012   61.2172  -27.9950 N   0  0  0  0  0
  -24.8593   62.4872  -26.9204 N   0  0  0  0  0
  -26.1017   60.6614  -27.7818 N   0  0  0  0  0
  -27.3198   59.3814  -26.1670 N   0  0  0  0  0
  -21.3206   65.5451  -28.4149 O   0  0  0  0  0
  1 20  1  0  0  0
  2 20  1  0  0  0
  2  3  1  0  0  0
  3 21  1  0  0  0
  4 21  1  0  0  0
  4  5  1  0  0  0
  5  6  1  0  0  0
  5  2  1  0  0  0
  6  7  1  0  0  0
  7  5  1  0  0  0
  8  9  1  0  0  0
 10 11  1  0  0  0
 12 22  1  0  0  0
 13  9  1  0  0  0
 15 23  1  0  0  0
 16 24  1  0  0  0
 17 18  1  0  0  0
 17 14  1  0  0  0
 19 25  1  0  0  0
 20 14  1  0  0  0
 21  8  1  0  0  0
 25 16  1  0  0  0
  8 26  2  0  0  0
  9 10  2  0  0  0
 11 22  2  0  0  0
 12 13  2  0  0  0
 14 23  2  0  0  0
 15 24  2  0  0  0
 16 17  2  0  0  0
 18 19  2  0  0  0
M  END
> <rmsd>
0.600831091

$$$$
CHEMBL4293188


 28 32  0  0  0  0  0  0  0  0999 V2000
  -25.1656   62.7790  -23.1634 C   0  0  0  0  0
  -23.9330   64.2272  -24.7360 C   0  0  0  0  0
  -22.6306   63.8545  -25.4404 C   0  0  0  0  0
  -23.7190   65.5227  -26.8598 C   0  0  0  0  0
  -24.5598   65.2644  -25.6433 C   0  0  0  0  0
  -26.0011   65.7115  -25.5389 C   0  0  0  0  0
  -24.8945   66.5392  -24.9038 C   0  0  0  0  0
  -21.5044   64.5752  -27.6242 C   0  0  0  0  0
  -20.6025   63.4048  -27.7286 C   0  0  0  0  0
  -20.9632   62.1571  -27.1972 C   0  0  0  0  0
  -20.1137   61.0552  -27.3291 C   0  0  0  0  0
  -18.8966   61.1888  -28.0014 C   0  0  0  0  0
  -18.5309   62.4234  -28.5439 C   0  0  0  0  0
  -19.3823   63.5244  -28.4116 C   0  0  0  0  0
  -17.2829   62.5609  -29.2397 C   0  0  0  0  0
  -25.2509   62.2211  -25.6366 C   0  0  0  0  0
  -25.2656   61.7311  -27.9813 C   0  0  0  0  0
  -26.4775   60.3662  -26.5261 C   0  0  0  0  0
  -26.0903   61.1107  -25.4547 C   0  0  0  0  0
  -26.6682   60.5482  -24.3370 C   0  0  0  0  0
  -27.3917   59.4606  -24.8307 C   0  0  0  0  0
  -24.7963   63.0582  -24.5427 N   0  0  0  0  0
  -22.5907   64.6227  -26.6846 N   0  0  0  0  0
  -16.2768   62.6717  -29.8007 N   0  0  0  0  0
  -24.8633   62.4950  -26.9200 N   0  0  0  0  0
  -26.0805   60.6552  -27.7877 N   0  0  0  0  0
  -27.2746   59.3485  -26.1764 N   0  0  0  0  0
  -21.3209   65.5562  -28.3962 O   0  0  0  0  0
  1 22  1  0  0  0
  2 22  1  0  0  0
  2  3  1  0  0  0
  3 23  1  0  0  0
  4 23  1  0  0  0
  4  5  1  0  0  0
  5  6  1  0  0  0
  5  2  1  0  0  0
  6  7  1  0  0  0
  7  5  1  0  0  0
  8  9  1  0  0  0
 10 11  1  0  0  0
 12 13  1  0  0  0
 13 15  1  0  0  0
 14  9  1  0  0  0
 17 25  1  0  0  0
 18 26  1  0  0  0
 19 20  1  0  0  0
 19 16  1  0  0  0
 21 27  1  0  0  0
 22 16  1  0  0  0
 23  8  1  0  0  0
 27 18  1  0  0  0
  8 28  2  0  0  0
  9 10  2  0  0  0
 11 12  2  0  0  0
 13 14  2  0  0  0
 16 25  2  0  0  0
 17 26  2  0  0  0
 18 19  2  0  0  0
 20 21  2  0  0  0
 15 24  3  0  0  0
M  END
> <rmsd>
0.590329766

$$$$
CHEMBL4290647


 26 30  0  0  0  0  0  0  0  0999 V2000
  -25.1609   62.7777  -23.1624 C   0  0  0  0  0
  -23.9305   64.2260  -24.7365 C   0  0  0  0  0
  -22.6290   63.8524  -25.4421 C   0  0  0  0  0
  -23.7175   65.5214  -26.8605 C   0  0  0  0  0
  -24.5575   65.2636  -25.6432 C   0  0  0  0  0
  -24.8905   66.5385  -24.9035 C   0  0  0  0  0
  -25.9984   65.7115  -25.5376 C   0  0  0  0  0
  -21.5031   64.5744  -27.6258 C   0  0  0  0  0
  -20.5997   63.4049  -27.7299 C   0  0  0  0  0
  -19.3792   63.5258  -28.4123 C   0  0  0  0  0
  -18.5269   62.4256  -28.5445 C   0  0  0  0  0
  -18.8908   61.1911  -28.0013 C   0  0  0  0  0
  -20.1080   61.0561  -27.3294 C   0  0  0  0  0
  -20.9591   62.1570  -27.1982 C   0  0  0  0  0
  -25.2521   62.2216  -25.6358 C   0  0  0  0  0
  -25.2683   61.7303  -27.9801 C   0  0  0  0  0
  -26.4867   60.3718  -26.5245 C   0  0  0  0  0
  -26.0967   61.1152  -25.4534 C   0  0  0  0  0
  -26.6776   60.5561  -24.3356 C   0  0  0  0  0
  -27.4060   59.4716  -24.8290 C   0  0  0  0  0
  -24.7944   63.0576  -24.5422 N   0  0  0  0  0
  -22.5894   64.6209  -26.6861 N   0  0  0  0  0
  -24.8628   62.4930  -26.9192 N   0  0  0  0  0
  -26.0881   60.6582  -27.7861 N   0  0  0  0  0
  -27.2888   59.3580  -26.1745 N   0  0  0  0  0
  -21.3207   65.5553  -28.3980 O   0  0  0  0  0
  1 21  1  0  0  0
  2 21  1  0  0  0
  2  3  1  0  0  0
  3 22  1  0  0  0
  4 22  1  0  0  0
  4  5  1  0  0  0
  5  6  1  0  0  0
  5  2  1  0  0  0
  6  7  1  0  0  0
  7  5  1  0  0  0
  8  9  1  0  0  0
 10 11  1  0  0  0
 12 13  1  0  0  0
 14  9  1  0  0  0
 16 23  1  0  0  0
 17 24  1  0  0  0
 18 19  1  0  0  0
 18 15  1  0  0  0
 20 25  1  0  0  0
 21 15  1  0  0  0
 22  8  1  0  0  0
 25 17  1  0  0  0
  8 26  2  0  0  0
  9 10  2  0  0  0
 11 12  2  0  0  0
 13 14  2  0  0  0
 15 23  2  0  0  0
 16 24  2  0  0  0
 17 18  2  0  0  0
 19 20  2  0  0  0
M  END
> <rmsd>
0.594331205

$$$$
CHEMBL4292627


 28 32  0  0  0  0  0  0  0  0999 V2000
  -25.1773   62.7696  -23.1602 C   0  0  0  0  0
  -23.9346   64.2201  -24.7227 C   0  0  0  0  0
  -22.6311   63.8506  -25.4267 C   0  0  0  0  0
  -23.7168   65.5257  -26.8400 C   0  0  0  0  0
  -24.5598   65.2618  -25.6261 C   0  0  0  0  0
  -24.8958   66.5330  -24.8812 C   0  0  0  0  0
  -26.0013   65.7083  -25.5222 C   0  0  0  0  0
  -21.5029   64.5788  -27.6070 C   0  0  0  0  0
  -20.6064   63.4050  -27.7189 C   0  0  0  0  0
  -19.3853   63.5233  -28.4007 C   0  0  0  0  0
  -18.5395   62.4190  -28.5402 C   0  0  0  0  0
  -18.9105   61.1830  -28.0048 C   0  0  0  0  0
  -20.1291   61.0506  -27.3347 C   0  0  0  0  0
  -20.9736   62.1556  -27.1962 C   0  0  0  0  0
  -18.0424   60.0487  -28.1474 C   0  0  0  0  0
  -25.2444   62.2137  -25.6345 C   0  0  0  0  0
  -25.2642   61.7419  -27.9827 C   0  0  0  0  0
  -26.4412   60.3431  -26.5313 C   0  0  0  0  0
  -26.0617   61.0863  -25.4564 C   0  0  0  0  0
  -26.6203   60.5030  -24.3394 C   0  0  0  0  0
  -27.3257   59.4056  -24.8375 C   0  0  0  0  0
  -24.7982   63.0500  -24.5365 N   0  0  0  0  0
  -22.5894   64.6243  -26.6676 N   0  0  0  0  0
  -17.3425   59.1341  -28.2624 N   0  0  0  0  0
  -24.8696   62.5047  -26.9179 N   0  0  0  0  0
  -26.0575   60.6494  -27.7929 N   0  0  0  0  0
  -27.2159   59.3069  -26.1849 N   0  0  0  0  0
  -21.3151   65.5641  -28.3723 O   0  0  0  0  0
  1 22  1  0  0  0
  2 22  1  0  0  0
  2  3  1  0  0  0
  3 23  1  0  0  0
  4 23  1  0  0  0
  4  5  1  0  0  0
  5  6  1  0  0  0
  5  2  1  0  0  0
  6  7  1  0  0  0
  7  5  1  0  0  0
  8  9  1  0  0  0
 10 11  1  0  0  0
 12 13  1  0  0  0
 12 15  1  0  0  0
 14  9  1  0  0  0
 17 25  1  0  0  0
 18 26  1  0  0  0
 19 20  1  0  0  0
 19 16  1  0  0  0
 21 27  1  0  0  0
 22 16  1  0  0  0
 23  8  1  0  0  0
 27 18  1  0  0  0
  8 28  2  0  0  0
  9 10  2  0  0  0
 11 12  2  0  0  0
 13 14  2  0  0  0
 16 25  2  0  0  0
 17 26  2  0  0  0
 18 19  2  0  0  0
 20 21  2  0  0  0
 15 24  3  0  0  0
M  END
> <rmsd>
0.578193605

$$$$
CHEMBL1630793


 33 37  0  0  0  0  0  0  0  0999 V2000
  -24.3190   60.5577  -26.0801 N   0  0  0  0  0
  -24.9363   62.6894  -26.9148 N   0  0  0  0  0
  -26.9148   62.7411  -28.2625 N   0  0  0  0  0
  -25.5646   58.5224  -26.5676 N   0  0  0  0  0
  -24.8709   56.4923  -28.8124 N   0  0  0  0  0
  -20.7705   58.8980  -29.2175 N   0  0  0  0  0
  -24.0946   61.9038  -26.1850 C   0  0  0  0  0
  -25.9934   62.1061  -27.5282 C   0  0  0  0  0
  -27.7718   61.7641  -28.6471 C   0  0  0  0  0
  -27.3893   60.5162  -28.1525 C   0  0  0  0  0
  -26.2374   60.7710  -27.4403 C   0  0  0  0  0
  -25.3770   59.9485  -26.6988 C   0  0  0  0  0
  -26.4599   57.7843  -27.4710 C   0  0  0  0  0
  -25.8208   57.5980  -28.8497 C   0  0  0  0  0
  -25.3632   55.1915  -28.3743 C   0  0  0  0  0
  -25.9547   55.3185  -26.9720 C   0  0  0  0  0
  -26.9837   56.4560  -26.8832 C   0  0  0  0  0
  -28.2838   56.0530  -27.5572 C   0  0  0  0  0
  -23.4852   56.6915  -29.1308 C   0  0  0  0  0
  -22.9932   58.0478  -29.5477 C   0  0  0  0  0
  -22.2183   57.9758  -30.8703 C   0  0  0  0  0
  -20.8122   58.5476  -30.6203 C   0  0  0  0  0
  -21.9977   58.5824  -28.5971 C   0  0  0  0  0
  -19.6080   59.4771  -28.5581 C   0  0  0  0  0
  -19.8869   60.8845  -28.1540 C   0  0  0  0  0
  -20.2048   61.1802  -26.8246 C   0  0  0  0  0
  -20.5009   62.4939  -26.4517 C   0  0  0  0  0
  -20.4831   63.5121  -27.4083 C   0  0  0  0  0
  -20.1696   63.2173  -28.7381 C   0  0  0  0  0
  -19.8736   61.9044  -29.1112 C   0  0  0  0  0
  -24.7497   57.8069  -25.5891 C   0  0  0  0  0
  -22.6737   55.7278  -29.0475 O   0  0  0  0  0
  -22.2118   58.7510  -27.3671 O   0  0  0  0  0
  3  9  1  0  0  0
  5 19  1  0  0  0
  6 23  1  0  0  0
  7  2  1  0  0  0
  8  3  1  0  0  0
 10 11  1  0  0  0
 11  8  1  0  0  0
 12  4  1  0  0  0
 12  1  1  0  0  0
 13  4  1  0  0  0
 13 14  1  0  0  0
 14  5  1  0  0  0
 15  5  1  0  0  0
 15 16  1  0  0  0
 16 17  1  0  0  0
 17 18  1  0  0  0
 17 13  1  0  0  0
 20 19  1  0  0  0
 20 21  1  0  0  0
 20 23  1  0  0  0
 21 22  1  0  0  0
 22  6  1  0  0  0
 24  6  1  0  0  0
 24 25  1  0  0  0
 26 27  1  0  0  0
 28 29  1  0  0  0
 30 25  1  0  0  0
 31  4  1  0  0  0
  7  1  2  0  0  0
  8  2  2  0  0  0
  9 10  2  0  0  0
 11 12  2  0  0  0
 19 32  2  0  0  0
 23 33  2  0  0  0
 25 26  2  0  0  0
 27 28  2  0  0  0
 29 30  2  0  0  0
M  END
> <rmsd>
0.180277705

$$$$
CHEMBL1630796


 25 28  0  0  0  0  0  0  0  0999 V2000
  -25.1068   62.6926  -26.8833 N   0  0  0  0  0
  -24.7864   60.6273  -28.0099 N   0  0  0  0  0
  -23.3986   59.0377  -26.8766 N   0  0  0  0  0
  -24.0932   63.1813  -24.7198 N   0  0  0  0  0
  -22.8811   64.9633  -27.1207 N   0  0  0  0  0
  -25.3408   61.8739  -27.9568 C   0  0  0  0  0
  -24.0113   60.2241  -26.9759 C   0  0  0  0  0
  -22.7493   59.0943  -25.6862 C   0  0  0  0  0
  -22.9542   60.3168  -25.0396 C   0  0  0  0  0
  -23.7725   61.0158  -25.8983 C   0  0  0  0  0
  -24.3235   62.2998  -25.8362 C   0  0  0  0  0
  -23.8015   64.6094  -24.8729 C   0  0  0  0  0
  -22.5410   64.8695  -25.7059 C   0  0  0  0  0
  -23.8782   65.9639  -27.4813 C   0  0  0  0  0
  -25.1968   65.6246  -26.7936 C   0  0  0  0  0
  -25.0261   65.4543  -25.2776 C   0  0  0  0  0
  -24.9667   66.8126  -24.6010 C   0  0  0  0  0
  -22.3235   64.1037  -28.1381 C   0  0  0  0  0
  -21.3710   63.0021  -27.8469 C   0  0  0  0  0
  -20.8443   62.7277  -26.5872 C   0  0  0  0  0
  -20.0772   61.1246  -28.4145 C   0  0  0  0  0
  -20.9433   62.1161  -28.8535 C   0  0  0  0  0
  -24.0347   62.6477  -23.3678 C   0  0  0  0  0
  -22.6730   64.2812  -29.3379 O   0  0  0  0  0
  -19.8619   61.3819  -26.7700 S   0  0  0  0  0
  3  8  1  0  0  0
  5 18  1  0  0  0
  6  2  1  0  0  0
  7  3  1  0  0  0
  9 10  1  0  0  0
 10  7  1  0  0  0
 11  4  1  0  0  0
 11  1  1  0  0  0
 12  4  1  0  0  0
 12 13  1  0  0  0
 13  5  1  0  0  0
 14  5  1  0  0  0
 14 15  1  0  0  0
 15 16  1  0  0  0
 16 17  1  0  0  0
 16 12  1  0  0  0
 18 19  1  0  0  0
 20 25  1  0  0  0
 21 25  1  0  0  0
 22 19  1  0  0  0
 23  4  1  0  0  0
  6  1  2  0  0  0
  7  2  2  0  0  0
  8  9  2  0  0  0
 10 11  2  0  0  0
 18 24  2  0  0  0
 19 20  2  0  0  0
 21 22  2  0  0  0
M  END
> <rmsd>
0.296290427

$$$$
CHEMBL3693610


 28 32  0  0  0  0  0  0  0  0999 V2000
  -20.1081   65.7557  -27.8317 O   0  0  0  0  0
  -20.7190   64.8918  -28.5173 C   0  0  0  0  0
  -21.2795   66.6108  -30.2669 C   0  0  0  0  0
  -22.3605   66.7652  -31.3189 C   0  0  0  0  0
  -23.4018   65.6988  -31.0185 C   0  0  0  0  0
  -22.7145   64.6717  -30.1398 C   0  0  0  0  0
  -22.4248   63.4113  -30.9468 C   0  0  0  0  0
  -23.1063   62.2628  -30.2239 C   0  0  0  0  0
  -23.6293   64.2800  -28.9914 C   0  0  0  0  0
  -24.2987   62.0732  -27.9694 C   0  0  0  0  0
  -25.4037   62.0279  -25.8497 C   0  0  0  0  0
  -24.7116   60.0194  -26.8210 C   0  0  0  0  0
  -23.8843   58.5215  -28.0864 C   0  0  0  0  0
  -23.6631   59.7353  -28.7416 C   0  0  0  0  0
  -24.2103   60.6778  -27.8995 C   0  0  0  0  0
  -20.6445   63.4844  -28.1047 C   0  0  0  0  0
  -20.1309   62.5166  -28.9769 C   0  0  0  0  0
  -20.0682   61.1769  -28.5819 C   0  0  0  0  0
  -20.5164   60.8012  -27.3123 C   0  0  0  0  0
  -21.0191   61.7659  -26.4343 C   0  0  0  0  0
  -21.0751   63.1068  -26.8267 C   0  0  0  0  0
  -21.4972   61.3773  -25.1383 C   0  0  0  0  0
  -21.4850   65.3060  -29.6666 N   0  0  0  0  0
  -23.7503   62.8376  -29.0573 N   0  0  0  0  0
  -24.9021   62.7140  -26.9226 N   0  0  0  0  0
  -25.3086   60.6679  -25.7928 N   0  0  0  0  0
  -24.5279   58.6957  -26.9058 N   0  0  0  0  0
  -21.8846   61.0634  -24.0940 N   0  0  0  0  0
  2 23  1  0  0  0
  2 16  1  0  0  0
  3 23  1  0  0  0
  3  4  1  0  0  0
  4  5  1  0  0  0
  5  6  1  0  0  0
  6  7  1  0  0  0
  6 23  1  0  0  0
  7  8  1  0  0  0
  8 24  1  0  0  0
  9 24  1  0  0  0
  9  6  1  0  0  0
 11 25  1  0  0  0
 12 26  1  0  0  0
 12 27  1  0  0  0
 14 15  1  0  0  0
 15 10  1  0  0  0
 17 18  1  0  0  0
 19 20  1  0  0  0
 20 22  1  0  0  0
 21 16  1  0  0  0
 24 10  1  0  0  0
 27 13  1  0  0  0
  2  1  2  0  0  0
 10 25  2  0  0  0
 11 26  2  0  0  0
 13 14  2  0  0  0
 15 12  2  0  0  0
 16 17  2  0  0  0
 18 19  2  0  0  0
 20 21  2  0  0  0
 22 28  3  0  0  0
M  END
> <rmsd>
0.194998249

$$$$
CHEMBL3693611


 28 32  0  0  0  0  0  0  0  0999 V2000
  -18.5066   64.5397  -25.9870 O   0  0  0  0  0
  -19.7471   64.3749  -26.1415 C   0  0  0  0  0
  -20.3177   66.7040  -25.3876 C   0  0  0  0  0
  -21.4338   67.3272  -24.5711 C   0  0  0  0  0
  -22.2031   66.1744  -23.9433 C   0  0  0  0  0
  -21.8137   64.9283  -24.7155 C   0  0  0  0  0
  -21.4695   63.8013  -23.7448 C   0  0  0  0  0
  -22.2145   62.5726  -24.2325 C   0  0  0  0  0
  -22.9803   64.4486  -25.5588 C   0  0  0  0  0
  -23.9488   62.1726  -26.0694 C   0  0  0  0  0
  -25.6509   61.9338  -27.7309 C   0  0  0  0  0
  -24.6342   60.0220  -26.8520 C   0  0  0  0  0
  -23.3975   58.6492  -25.7973 C   0  0  0  0  0
  -23.0248   59.9175  -25.3460 C   0  0  0  0  0
  -23.8449   60.7768  -26.0428 C   0  0  0  0  0
  -20.2230   63.2304  -26.9331 C   0  0  0  0  0
  -19.6516   61.9645  -26.7513 C   0  0  0  0  0
  -20.1124   60.8716  -27.4917 C   0  0  0  0  0
  -21.1377   61.0419  -28.4263 C   0  0  0  0  0
  -21.6913   62.3084  -28.6323 C   0  0  0  0  0
  -21.2337   63.4005  -27.8887 C   0  0  0  0  0
  -21.6263   59.9149  -29.1681 C   0  0  0  0  0
  -20.6666   65.3052  -25.5400 N   0  0  0  0  0
  -23.1080   63.0315  -25.2802 N   0  0  0  0  0
  -24.8630   62.7158  -26.9298 N   0  0  0  0  0
  -25.5377   60.5738  -27.6971 N   0  0  0  0  0
  -24.3856   58.7127  -26.7236 N   0  0  0  0  0
  -22.0208   59.0049  -29.7641 N   0  0  0  0  0
  2 23  1  0  0  0
  2 16  1  0  0  0
  3 23  1  0  0  0
  3  4  1  0  0  0
  4  5  1  0  0  0
  5  6  1  0  0  0
  6  7  1  0  0  0
  6 23  1  0  0  0
  7  8  1  0  0  0
  8 24  1  0  0  0
  9 24  1  0  0  0
  9  6  1  0  0  0
 11 25  1  0  0  0
 12 26  1  0  0  0
 12 27  1  0  0  0
 14 15  1  0  0  0
 15 10  1  0  0  0
 17 18  1  0  0  0
 19 20  1  0  0  0
 19 22  1  0  0  0
 21 16  1  0  0  0
 24 10  1  0  0  0
 27 13  1  0  0  0
  2  1  2  0  0  0
 10 25  2  0  0  0
 11 26  2  0  0  0
 13 14  2  0  0  0
 15 12  2  0  0  0
 16 17  2  0  0  0
 18 19  2  0  0  0
 20 21  2  0  0  0
 22 28  3  0  0  0
M  END
> <rmsd>
0.265372008

$$$$
CHEMBL4280010


 26 30  0  0  0  0  0  0  0  0999 V2000
  -25.1526   62.7804  -23.1624 C   0  0  0  0  0
  -23.9245   64.2250  -24.7416 C   0  0  0  0  0
  -22.6251   63.8468  -25.4489 C   0  0  0  0  0
  -23.7118   65.5161  -26.8683 C   0  0  0  0  0
  -24.5504   65.2625  -25.6492 C   0  0  0  0  0
  -24.8790   66.5395  -24.9111 C   0  0  0  0  0
  -25.9900   65.7145  -25.5419 C   0  0  0  0  0
  -21.5004   64.5635  -27.6355 C   0  0  0  0  0
  -20.5940   63.3960  -27.7336 C   0  0  0  0  0
  -19.3812   63.5054  -28.4280 C   0  0  0  0  0
  -18.8743   61.2242  -28.0093 C   0  0  0  0  0
  -20.0756   61.0625  -27.3182 C   0  0  0  0  0
  -20.9360   62.1529  -27.1860 C   0  0  0  0  0
  -25.2556   62.2243  -25.6352 C   0  0  0  0  0
  -25.2736   61.7259  -27.9779 C   0  0  0  0  0
  -26.5082   60.3847  -26.5198 C   0  0  0  0  0
  -26.1119   61.1274  -25.4505 C   0  0  0  0  0
  -26.7011   60.5787  -24.3319 C   0  0  0  0  0
  -27.4401   59.5004  -24.8229 C   0  0  0  0  0
  -24.7911   63.0592  -24.5438 N   0  0  0  0  0
  -22.5851   64.6137  -26.6940 N   0  0  0  0  0
  -18.5548   62.4315  -28.5470 N   0  0  0  0  0
  -24.8618   62.4876  -26.9189 N   0  0  0  0  0
  -26.1048   60.6629  -27.7818 N   0  0  0  0  0
  -27.3219   59.3809  -26.1678 N   0  0  0  0  0
  -21.3218   65.5396  -28.4146 O   0  0  0  0  0
  1 20  1  0  0  0
  2 20  1  0  0  0
  2  3  1  0  0  0
  3 21  1  0  0  0
  4 21  1  0  0  0
  4  5  1  0  0  0
  5  6  1  0  0  0
  5  2  1  0  0  0
  6  7  1  0  0  0
  7  5  1  0  0  0
  8  9  1  0  0  0
 10 22  1  0  0  0
 11 12  1  0  0  0
 13  9  1  0  0  0
 15 23  1  0  0  0
 16 24  1  0  0  0
 17 18  1  0  0  0
 17 14  1  0  0  0
 19 25  1  0  0  0
 20 14  1  0  0  0
 21  8  1  0  0  0
 25 16  1  0  0  0
  8 26  2  0  0  0
  9 10  2  0  0  0
 11 22  2  0  0  0
 12 13  2  0  0  0
 14 23  2  0  0  0
 15 24  2  0  0  0
 16 17  2  0  0  0
 18 19  2  0  0  0
M  END
> <rmsd>
0.602706969

$$$$
CHEMBL3718794


 24 27  0  0  0  0  0  0  0  0999 V2000
  -25.3105   60.3522  -26.6765 N   0  0  0  0  0
  -25.1023   62.7076  -26.8849 N   0  0  0  0  0
  -23.4639   58.8213  -27.0440 N   0  0  0  0  0
  -22.9115   63.5442  -27.3959 N   0  0  0  0  0
  -18.4590   58.9469  -27.8045 N   0  0  0  0  0
  -25.8630   61.6035  -26.6320 C   0  0  0  0  0
  -23.7903   62.5411  -27.1763 C   0  0  0  0  0
  -23.2132   61.2929  -27.2220 C   0  0  0  0  0
  -23.9922   60.1548  -26.9787 C   0  0  0  0  0
  -22.6487   58.3949  -28.1771 C   0  0  0  0  0
  -23.4373   57.4353  -29.0650 C   0  0  0  0  0
  -24.0577   56.2961  -28.2429 C   0  0  0  0  0
  -24.8216   56.7722  -26.9979 C   0  0  0  0  0
  -24.0084   57.7777  -26.1800 C   0  0  0  0  0
  -26.1888   57.3268  -27.3570 C   0  0  0  0  0
  -24.4832   58.1778  -29.8788 C   0  0  0  0  0
  -21.8782   61.5206  -27.4684 C   0  0  0  0  0
  -21.7417   62.8907  -27.5756 C   0  0  0  0  0
  -20.5013   63.4788  -27.8081 C   0  0  0  0  0
  -19.3847   62.6333  -27.9266 C   0  0  0  0  0
  -19.5162   61.2293  -27.8044 C   0  0  0  0  0
  -20.7845   60.6639  -27.5643 C   0  0  0  0  0
  -18.3323   60.3611  -27.9250 C   0  0  0  0  0
  -17.1954   60.8611  -28.1365 O   0  0  0  0  0
  4  7  1  0  0  0
  6  2  1  0  0  0
  7  8  1  0  0  0
  8 17  1  0  0  0
  9  3  1  0  0  0
  9  1  1  0  0  0
 10  3  1  0  0  0
 10 11  1  0  0  0
 11 12  1  0  0  0
 11 16  1  0  0  0
 12 13  1  0  0  0
 13 14  1  0  0  0
 13 15  1  0  0  0
 14  3  1  0  0  0
 18  4  1  0  0  0
 18 19  1  0  0  0
 20 21  1  0  0  0
 21 23  1  0  0  0
 22 17  1  0  0  0
 23  5  1  0  0  0
  6  1  2  0  0  0
  7  2  2  0  0  0
  8  9  2  0  0  0
 17 18  2  0  0  0
 19 20  2  0  0  0
 21 22  2  0  0  0
 23 24  2  0  0  0
M  END
> <rmsd>
0.303494632

$$$$
CHEMBL3719102


 23 26  0  0  0  0  0  0  0  0999 V2000
  -25.3103   60.3511  -26.6759 N   0  0  0  0  0
  -25.1032   62.7069  -26.8841 N   0  0  0  0  0
  -23.4608   58.8229  -27.0388 N   0  0  0  0  0
  -22.9123   63.5444  -27.3946 N   0  0  0  0  0
  -18.4607   58.9461  -27.8068 N   0  0  0  0  0
  -25.8635   61.6023  -26.6316 C   0  0  0  0  0
  -23.7910   62.5411  -27.1753 C   0  0  0  0  0
  -23.2136   61.2932  -27.2213 C   0  0  0  0  0
  -23.9918   60.1549  -26.9779 C   0  0  0  0  0
  -22.6621   58.3909  -28.1814 C   0  0  0  0  0
  -23.4740   57.4197  -29.0291 C   0  0  0  0  0
  -23.9549   56.2531  -28.1649 C   0  0  0  0  0
  -24.7679   56.7375  -26.9596 C   0  0  0  0  0
  -23.9928   57.7862  -26.1557 C   0  0  0  0  0
  -26.1219   57.2719  -27.3944 C   0  0  0  0  0
  -21.8790   61.5206  -27.4678 C   0  0  0  0  0
  -21.7423   62.8908  -27.5744 C   0  0  0  0  0
  -20.5018   63.4787  -27.8071 C   0  0  0  0  0
  -19.3856   62.6327  -27.9265 C   0  0  0  0  0
  -19.5175   61.2286  -27.8051 C   0  0  0  0  0
  -20.7858   60.6634  -27.5650 C   0  0  0  0  0
  -18.3338   60.3602  -27.9268 C   0  0  0  0  0
  -17.1969   60.8600  -28.1387 O   0  0  0  0  0
  4  7  1  0  0  0
  6  2  1  0  0  0
  7  8  1  0  0  0
  8 16  1  0  0  0
  9  3  1  0  0  0
  9  1  1  0  0  0
 10  3  1  0  0  0
 10 11  1  0  0  0
 11 12  1  0  0  0
 12 13  1  0  0  0
 13 14  1  0  0  0
 13 15  1  0  0  0
 14  3  1  0  0  0
 17  4  1  0  0  0
 17 18  1  0  0  0
 19 20  1  0  0  0
 20 22  1  0  0  0
 21 16  1  0  0  0
 22  5  1  0  0  0
  6  1  2  0  0  0
  7  2  2  0  0  0
  8  9  2  0  0  0
 16 17  2  0  0  0
 18 19  2  0  0  0
 20 21  2  0  0  0
 22 23  2  0  0  0
M  END
> <rmsd>
0.304041654

$$$$
CHEMBL3715588


 22 25  0  0  0  0  0  0  0  0999 V2000
  -25.3291   60.3452  -26.7829 N   0  0  0  0  0
  -25.1033   62.7069  -26.8847 N   0  0  0  0  0
  -23.4476   58.8297  -26.9760 N   0  0  0  0  0
  -22.8909   63.5508  -27.2824 N   0  0  0  0  0
  -18.5126   58.9315  -28.0742 N   0  0  0  0  0
  -25.8833   61.5962  -26.7397 C   0  0  0  0  0
  -23.7719   62.5469  -27.0748 C   0  0  0  0  0
  -23.1950   61.2995  -27.1249 C   0  0  0  0  0
  -23.9877   60.1574  -26.9641 C   0  0  0  0  0
  -22.2986   58.4960  -26.1343 C   0  0  0  0  0
  -22.6599   57.3662  -25.1687 C   0  0  0  0  0
  -23.4264   56.2133  -25.8375 C   0  0  0  0  0
  -23.5984   56.3921  -27.3462 C   0  0  0  0  0
  -24.1978   57.7642  -27.6465 C   0  0  0  0  0
  -21.8659   61.5248  -27.3989 C   0  0  0  0  0
  -21.7237   62.8962  -27.4773 C   0  0  0  0  0
  -20.4928   63.4808  -27.7634 C   0  0  0  0  0
  -19.3945   62.6294  -27.9757 C   0  0  0  0  0
  -19.5374   61.2226  -27.9091 C   0  0  0  0  0
  -20.7972   60.6603  -27.6218 C   0  0  0  0  0
  -18.3749   60.3481  -28.1413 C   0  0  0  0  0
  -17.2467   60.8449  -28.4013 O   0  0  0  0  0
  4  7  1  0  0  0
  6  2  1  0  0  0
  7  8  1  0  0  0
  8 15  1  0  0  0
  9  3  1  0  0  0
  9  1  1  0  0  0
 10  3  1  0  0  0
 10 11  1  0  0  0
 11 12  1  0  0  0
 12 13  1  0  0  0
 13 14  1  0  0  0
 14  3  1  0  0  0
 16  4  1  0  0  0
 16 17  1  0  0  0
 18 19  1  0  0  0
 19 21  1  0  0  0
 20 15  1  0  0  0
 21  5  1  0  0  0
  6  1  2  0  0  0
  7  2  2  0  0  0
  8  9  2  0  0  0
 15 16  2  0  0  0
 17 18  2  0  0  0
 19 20  2  0  0  0
 21 22  2  0  0  0
M  END
> <rmsd>
0.304120153

$$$$
CHEMBL3719354


 22 25  0  0  0  0  0  0  0  0999 V2000
  -25.3291   60.3452  -26.7829 N   0  0  0  0  0
  -25.1033   62.7069  -26.8847 N   0  0  0  0  0
  -23.4476   58.8297  -26.9760 N   0  0  0  0  0
  -22.8909   63.5508  -27.2824 N   0  0  0  0  0
  -18.5126   58.9315  -28.0742 N   0  0  0  0  0
  -25.8833   61.5962  -26.7397 C   0  0  0  0  0
  -23.7719   62.5469  -27.0748 C   0  0  0  0  0
  -23.1950   61.2995  -27.1249 C   0  0  0  0  0
  -23.9877   60.1574  -26.9641 C   0  0  0  0  0
  -22.2986   58.4960  -26.1343 C   0  0  0  0  0
  -22.6599   57.3662  -25.1687 C   0  0  0  0  0
  -23.4264   56.2133  -25.8375 C   0  0  0  0  0
  -23.5984   56.3921  -27.3462 C   0  0  0  0  0
  -24.1978   57.7642  -27.6465 C   0  0  0  0  0
  -21.8659   61.5248  -27.3989 C   0  0  0  0  0
  -21.7237   62.8962  -27.4773 C   0  0  0  0  0
  -20.4928   63.4808  -27.7634 C   0  0  0  0  0
  -19.3945   62.6294  -27.9757 C   0  0  0  0  0
  -19.5374   61.2226  -27.9091 C   0  0  0  0  0
  -20.7972   60.6603  -27.6218 C   0  0  0  0  0
  -18.3749   60.3481  -28.1413 C   0  0  0  0  0
  -17.2467   60.8449  -28.4013 O   0  0  0  0  0
  4  7  1  0  0  0
  6  2  1  0  0  0
  7  8  1  0  0  0
  8 15  1  0  0  0
  9  3  1  0  0  0
  9  1  1  0  0  0
 10  3  1  0  0  0
 10 11  1  0  0  0
 11 12  1  0  0  0
 12 13  1  0  0  0
 13 14  1  0  0  0
 14  3  1  0  0  0
 16  4  1  0  0  0
 16 17  1  0  0  0
 18 19  1  0  0  0
 19 21  1  0  0  0
 20 15  1  0  0  0
 21  5  1  0  0  0
  6  1  2  0  0  0
  7  2  2  0  0  0
  8  9  2  0  0  0
 15 16  2  0  0  0
 17 18  2  0  0  0
 19 20  2  0  0  0
 21 22  2  0  0  0
M  END
> <rmsd>
0.304120153

$$$$
CHEMBL3716162


 23 26  0  0  0  0  0  0  0  0999 V2000
  -25.3274   60.3457  -26.7799 N   0  0  0  0  0
  -25.1032   62.7073  -26.8853 N   0  0  0  0  0
  -23.4405   58.8309  -26.9794 N   0  0  0  0  0
  -22.8913   63.5515  -27.2869 N   0  0  0  0  0
  -17.0953   60.9101  -28.4263 N   0  0  0  0  0
  -25.8822   61.5965  -26.7368 C   0  0  0  0  0
  -23.7723   62.5476  -27.0792 C   0  0  0  0  0
  -23.1952   61.3005  -27.1292 C   0  0  0  0  0
  -23.9862   60.1581  -26.9654 C   0  0  0  0  0
  -22.3077   58.4943  -26.1235 C   0  0  0  0  0
  -22.8064   57.7356  -24.8938 C   0  0  0  0  0
  -23.6667   56.5314  -25.2940 C   0  0  0  0  0
  -24.7973   56.9392  -26.2459 C   0  0  0  0  0
  -24.2603   57.7183  -27.4474 C   0  0  0  0  0
  -22.8158   55.4244  -25.8949 C   0  0  0  0  0
  -21.8661   61.5255  -27.4022 C   0  0  0  0  0
  -21.7240   62.8968  -27.4813 C   0  0  0  0  0
  -20.4926   63.4811  -27.7655 C   0  0  0  0  0
  -19.3936   62.6296  -27.9745 C   0  0  0  0  0
  -19.5362   61.2232  -27.9062 C   0  0  0  0  0
  -20.7968   60.6606  -27.6207 C   0  0  0  0  0
  -18.3723   60.3495  -28.1348 C   0  0  0  0  0
  -18.4950   59.0971  -28.0742 O   0  0  0  0  0
  4  7  1  0  0  0
  6  2  1  0  0  0
  7  8  1  0  0  0
  8 16  1  0  0  0
  9  3  1  0  0  0
  9  1  1  0  0  0
 10  3  1  0  0  0
 10 11  1  0  0  0
 11 12  1  0  0  0
 12 13  1  0  0  0
 12 15  1  0  0  0
 13 14  1  0  0  0
 14  3  1  0  0  0
 17  4  1  0  0  0
 17 18  1  0  0  0
 19 20  1  0  0  0
 20 22  1  0  0  0
 21 16  1  0  0  0
 22  5  1  0  0  0
  6  1  2  0  0  0
  7  2  2  0  0  0
  8  9  2  0  0  0
 16 17  2  0  0  0
 18 19  2  0  0  0
 20 21  2  0  0  0
 22 23  2  0  0  0
M  END
> <rmsd>
0.304292321

$$$$
CHEMBL3715037


 24 27  0  0  0  0  0  0  0  0999 V2000
  -25.3048   60.3497  -26.6749 N   0  0  0  0  0
  -25.1035   62.7073  -26.8851 N   0  0  0  0  0
  -23.4479   58.8350  -27.0323 N   0  0  0  0  0
  -22.9118   63.5480  -27.3964 N   0  0  0  0  0
  -18.4680   58.9411  -27.7988 N   0  0  0  0  0
  -25.8611   61.6002  -26.6313 C   0  0  0  0  0
  -23.7911   62.5445  -27.1781 C   0  0  0  0  0
  -23.2129   61.2986  -27.2246 C   0  0  0  0  0
  -23.9864   60.1608  -26.9785 C   0  0  0  0  0
  -22.7071   58.3860  -28.2113 C   0  0  0  0  0
  -23.2634   57.0585  -28.7074 C   0  0  0  0  0
  -23.2350   56.0409  -27.5757 C   0  0  0  0  0
  -24.1177   56.5157  -26.4244 C   0  0  0  0  0
  -23.7134   57.9097  -25.9269 C   0  0  0  0  0
  -22.5773   57.8917  -24.9011 C   0  0  0  0  0
  -21.2477   57.4530  -25.4933 C   0  0  0  0  0
  -21.8794   61.5237  -27.4704 C   0  0  0  0  0
  -21.7417   62.8935  -27.5761 C   0  0  0  0  0
  -20.4996   63.4789  -27.8068 C   0  0  0  0  0
  -19.3847   62.6302  -27.9246 C   0  0  0  0  0
  -19.5196   61.2259  -27.8039 C   0  0  0  0  0
  -20.7893   60.6631  -27.5665 C   0  0  0  0  0
  -18.3377   60.3547  -27.9220 C   0  0  0  0  0
  -17.1995   60.8516  -28.1333 O   0  0  0  0  0
  4  7  1  0  0  0
  6  2  1  0  0  0
  7  8  1  0  0  0
  8 17  1  0  0  0
  9  3  1  0  0  0
  9  1  1  0  0  0
 10  3  1  0  0  0
 10 11  1  0  0  0
 11 12  1  0  0  0
 12 13  1  0  0  0
 13 14  1  0  0  0
 14 15  1  0  0  0
 14  3  1  0  0  0
 15 16  1  0  0  0
 18  4  1  0  0  0
 18 19  1  0  0  0
 20 21  1  0  0  0
 21 23  1  0  0  0
 22 17  1  0  0  0
 23  5  1  0  0  0
  6  1  2  0  0  0
  7  2  2  0  0  0
  8  9  2  0  0  0
 17 18  2  0  0  0
 19 20  2  0  0  0
 21 22  2  0  0  0
 23 24  2  0  0  0
M  END
> <rmsd>
0.305349827

$$$$
CHEMBL3715974


 23 26  0  0  0  0  0  0  0  0999 V2000
  -24.6609   55.8341  -27.4143 C   0  0  0  0  0
  -23.4379   56.0299  -28.3158 C   0  0  0  0  0
  -23.4367   57.3713  -29.0340 C   0  0  0  0  0
  -22.6803   58.3991  -28.2007 C   0  0  0  0  0
  -23.8819   57.8395  -26.0479 C   0  0  0  0  0
  -25.0717   57.0517  -26.5800 C   0  0  0  0  0
  -23.9900   60.1557  -26.9781 C   0  0  0  0  0
  -25.8630   61.6011  -26.6343 C   0  0  0  0  0
  -23.7901   62.5413  -27.1751 C   0  0  0  0  0
  -23.2125   61.2939  -27.2212 C   0  0  0  0  0
  -21.8781   61.5209  -27.4678 C   0  0  0  0  0
  -21.7413   62.8911  -27.5740 C   0  0  0  0  0
  -20.5007   63.4784  -27.8070 C   0  0  0  0  0
  -19.3848   62.6319  -27.9273 C   0  0  0  0  0
  -19.5173   61.2277  -27.8066 C   0  0  0  0  0
  -20.7857   60.6629  -27.5661 C   0  0  0  0  0
  -18.3340   60.3588  -27.9295 C   0  0  0  0  0
  -23.4590   58.8240  -27.0397 N   0  0  0  0  0
  -25.3093   60.3501  -26.6785 N   0  0  0  0  0
  -25.1027   62.7064  -26.8852 N   0  0  0  0  0
  -22.9113   63.5447  -27.3940 N   0  0  0  0  0
  -18.4616   58.9447  -27.8104 N   0  0  0  0  0
  -17.1970   60.8583  -28.1416 O   0  0  0  0  0
  1  2  1  0  0  0
  2  3  1  0  0  0
  3  4  1  0  0  0
  4 18  1  0  0  0
  5 18  1  0  0  0
  5  6  1  0  0  0
  6  1  1  0  0  0
  8 19  1  0  0  0
  9 20  1  0  0  0
 10 11  1  0  0  0
 10  7  1  0  0  0
 12 21  1  0  0  0
 12 13  1  0  0  0
 14 15  1  0  0  0
 15 17  1  0  0  0
 16 11  1  0  0  0
 17 22  1  0  0  0
 18  7  1  0  0  0
 21  9  1  0  0  0
  7 19  2  0  0  0
  8 20  2  0  0  0
  9 10  2  0  0  0
 11 12  2  0  0  0
 13 14  2  0  0  0
 15 16  2  0  0  0
 17 23  2  0  0  0
M  END
> <rmsd>
0.303964913

$$$$
CHEMBL3356065


 26 29  0  0  0  0  0  0  0  0999 V2000
  -26.7272   60.5006  -26.4652 C   0  0  0  0  0
  -25.2251   62.0875  -25.6312 C   0  0  0  0  0
  -25.4608   61.8310  -27.9935 C   0  0  0  0  0
  -26.4183   60.8411  -27.7487 C   0  0  0  0  0
  -27.2560   60.0934  -28.5472 C   0  0  0  0  0
  -28.0350   59.3261  -27.6878 C   0  0  0  0  0
  -27.4158   60.1563  -30.0265 C   0  0  0  0  0
  -24.9280   63.6258  -29.6379 C   0  0  0  0  0
  -23.4820   63.9454  -30.0134 C   0  0  0  0  0
  -23.7504   61.8245  -31.3743 C   0  0  0  0  0
  -24.5228   61.1863  -30.2212 C   0  0  0  0  0
  -21.4717   62.8026  -31.0262 C   0  0  0  0  0
  -20.5476   63.6888  -30.2537 C   0  0  0  0  0
  -20.0486   62.9862  -29.0364 C   0  0  0  0  0
  -20.7597   63.0686  -27.8321 C   0  0  0  0  0
  -20.2928   62.3989  -26.6958 C   0  0  0  0  0
  -19.1184   61.6415  -26.7629 C   0  0  0  0  0
  -18.4113   61.5531  -27.9666 C   0  0  0  0  0
  -18.8762   62.2250  -29.1020 C   0  0  0  0  0
  -23.4343   65.2804  -30.7332 C   0  0  0  0  0
  -26.1504   61.1109  -25.4016 N   0  0  0  0  0
  -24.8874   62.4370  -26.9115 N   0  0  0  0  0
  -27.7014   59.5775  -26.3974 N   0  0  0  0  0
  -25.0632   62.2054  -29.3153 N   0  0  0  0  0
  -22.8948   62.8904  -30.8519 N   0  0  0  0  0
  -20.9805   61.9445  -31.8081 O   0  0  0  0  0
  2 21  1  0  0  0
  3 22  1  0  0  0
  3 24  1  0  0  0
  4  5  1  0  0  0
  4  1  1  0  0  0
  6 23  1  0  0  0
  7  5  1  0  0  0
  8 24  1  0  0  0
  8  9  1  0  0  0
  9 25  1  0  0  0
  9 20  1  0  0  0
 10 25  1  0  0  0
 10 11  1  0  0  0
 11 24  1  0  0  0
 13 12  1  0  0  0
 13 14  1  0  0  0
 15 16  1  0  0  0
 17 18  1  0  0  0
 19 14  1  0  0  0
 23  1  1  0  0  0
 25 12  1  0  0  0
  1 21  2  0  0  0
  2 22  2  0  0  0
  3  4  2  0  0  0
  5  6  2  0  0  0
 12 26  2  0  0  0
 14 15  2  0  0  0
 16 17  2  0  0  0
 18 19  2  0  0  0
M  END
> <rmsd>
0.716837764

$$$$
CHEMBL1630790


 27 30  0  0  0  0  0  0  0  0999 V2000
  -23.7048   60.8075  -26.7991 N   0  0  0  0  0
  -25.0961   62.7256  -26.8858 N   0  0  0  0  0
  -27.4517   62.2958  -26.9251 N   0  0  0  0  0
  -24.5824   58.5261  -26.7729 N   0  0  0  0  0
  -21.0696   58.9185  -26.2638 N   0  0  0  0  0
  -23.8525   62.1674  -26.8363 C   0  0  0  0  0
  -26.1717   61.9032  -26.8974 C   0  0  0  0  0
  -28.1581   61.1386  -26.9036 C   0  0  0  0  0
  -27.3218   60.0205  -26.8610 C   0  0  0  0  0
  -26.0496   60.5491  -26.8629 C   0  0  0  0  0
  -24.7791   59.9599  -26.8145 C   0  0  0  0  0
  -23.3199   57.9059  -26.3602 C   0  0  0  0  0
  -22.1084   58.4113  -27.1591 C   0  0  0  0  0
  -20.6121   57.8047  -25.4367 C   0  0  0  0  0
  -21.7180   57.3275  -24.4772 C   0  0  0  0  0
  -23.1128   57.8628  -24.8304 C   0  0  0  0  0
  -23.3182   59.2126  -24.1592 C   0  0  0  0  0
  -19.9501   59.3395  -27.0904 C   0  0  0  0  0
  -20.0940   60.7845  -27.4459 C   0  0  0  0  0
  -20.3168   61.1710  -28.7763 C   0  0  0  0  0
  -20.4687   62.5267  -29.0930 C   0  0  0  0  0
  -20.3936   63.4938  -28.0865 C   0  0  0  0  0
  -20.1675   63.1102  -26.7621 C   0  0  0  0  0
  -20.0182   61.7583  -26.4423 C   0  0  0  0  0
  -25.6071   57.6157  -27.2604 C   0  0  0  0  0
  -20.6901   62.9073  -30.3749 F   0  0  0  0  0
  -20.3965   60.2375  -29.7584 F   0  0  0  0  0
  3  8  1  0  0  0
  6  2  1  0  0  0
  7  3  1  0  0  0
  9 10  1  0  0  0
 10  7  1  0  0  0
 11  4  1  0  0  0
 11  1  1  0  0  0
 12  4  1  0  0  0
 12 13  1  0  0  0
 13  5  1  0  0  0
 14  5  1  0  0  0
 14 15  1  0  0  0
 15 16  1  0  0  0
 16 17  1  0  0  0
 16 12  1  0  0  0
 18  5  1  0  0  0
 18 19  1  0  0  0
 20 21  1  0  0  0
 20 27  1  0  0  0
 21 26  1  0  0  0
 22 23  1  0  0  0
 24 19  1  0  0  0
 25  4  1  0  0  0
  6  1  2  0  0  0
  7  2  2  0  0  0
  8  9  2  0  0  0
 10 11  2  0  0  0
 19 20  2  0  0  0
 21 22  2  0  0  0
 23 24  2  0  0  0
M  END
> <rmsd>
0.0499757379

$$$$
CHEMBL4167162


 27 30  0  0  0  0  0  0  0  0999 V2000
  -25.8278   57.8379  -26.5117 C   0  0  0  0  0
  -27.1330   58.2911  -26.2889 C   0  0  0  0  0
  -27.4232   59.6587  -26.3013 C   0  0  0  0  0
  -26.4062   60.5866  -26.5376 C   0  0  0  0  0
  -25.0876   60.1427  -26.7633 C   0  0  0  0  0
  -24.8066   58.7705  -26.7489 C   0  0  0  0  0
  -24.0912   61.1009  -26.9970 C   0  0  0  0  0
  -25.7058   62.8277  -26.7785 C   0  0  0  0  0
  -21.5961   61.5171  -27.4848 C   0  0  0  0  0
  -20.3524   60.9086  -27.6884 C   0  0  0  0  0
  -19.2166   61.6842  -27.9389 C   0  0  0  0  0
  -19.3187   63.0770  -27.9871 C   0  0  0  0  0
  -20.5560   63.6937  -27.7850 C   0  0  0  0  0
  -21.6905   62.9165  -27.5347 C   0  0  0  0  0
  -24.3121   55.7793  -26.6928 C   0  0  0  0  0
  -24.2329   54.2943  -26.6105 C   0  0  0  0  0
  -25.2308   53.4871  -24.6483 C   0  0  0  0  0
  -24.9648   52.2977  -23.7519 C   0  0  0  0  0
  -23.6174   51.7690  -24.1768 C   0  0  0  0  0
  -23.1730   52.6673  -25.3097 C   0  0  0  0  0
  -24.4281   62.4201  -26.9982 N   0  0  0  0  0
  -26.6849   61.9146  -26.5502 N   0  0  0  0  0
  -22.7358   60.6839  -27.2308 N   0  0  0  0  0
  -25.5748   56.4267  -26.4897 N   0  0  0  0  0
  -23.9628   53.8865  -25.2413 N   0  0  0  0  0
  -17.8972   64.0486  -28.3005 Cl  0  0  0  0  0
  -23.2632   56.4425  -26.9079 O   0  0  0  0  0
  1 24  1  0  0  0
  2  3  1  0  0  0
  4  5  1  0  0  0
  4 22  1  0  0  0
  5  7  1  0  0  0
  6  1  1  0  0  0
  7 23  1  0  0  0
  8 21  1  0  0  0
 10 11  1  0  0  0
 12 13  1  0  0  0
 12 26  1  0  0  0
 14  9  1  0  0  0
 16 15  1  0  0  0
 16 25  1  0  0  0
 17 25  1  0  0  0
 17 18  1  0  0  0
 18 19  1  0  0  0
 19 20  1  0  0  0
 20 25  1  0  0  0
 23  9  1  0  0  0
 24 15  1  0  0  0
  1  2  2  0  0  0
  3  4  2  0  0  0
  5  6  2  0  0  0
  7 21  2  0  0  0
  8 22  2  0  0  0
  9 10  2  0  0  0
 11 12  2  0  0  0
 13 14  2  0  0  0
 15 27  2  0  0  0
M  END
> <rmsd>
0.524958014

$$$$
CHEMBL4649816


 23 26  0  0  0  0  0  0  0  0999 V2000
  -23.5262   58.0073  -28.9958 C   0  0  0  0  0
  -23.4498   57.8028  -27.4769 C   0  0  0  0  0
  -22.0564   58.2462  -27.0023 C   0  0  0  0  0
  -22.1789   58.5069  -29.3288 C   0  0  0  0  0
  -20.0528   59.3097  -28.1901 C   0  0  0  0  0
  -20.2470   60.7692  -27.9515 C   0  0  0  0  0
  -20.4141   61.6398  -29.0341 C   0  0  0  0  0
  -20.6221   63.0041  -28.8095 C   0  0  0  0  0
  -20.6690   63.4984  -27.5023 C   0  0  0  0  0
  -20.5103   62.6282  -26.4193 C   0  0  0  0  0
  -20.3020   61.2639  -26.6436 C   0  0  0  0  0
  -24.6610   59.9741  -26.8345 C   0  0  0  0  0
  -23.9873   62.1297  -27.6094 C   0  0  0  0  0
  -25.8192   61.9380  -26.1768 C   0  0  0  0  0
  -25.6785   60.5983  -26.1267 C   0  0  0  0  0
  -27.3219   61.1567  -24.9278 C   0  0  0  0  0
  -21.3373   58.6247  -28.2010 N   0  0  0  0  0
  -24.4999   58.5502  -26.7895 N   0  0  0  0  0
  -23.8257   60.7683  -27.5709 N   0  0  0  0  0
  -24.9947   62.7286  -26.9051 N   0  0  0  0  0
  -26.6202   60.0636  -25.3384 N   0  0  0  0  0
  -26.8543   62.3343  -25.4271 N   0  0  0  0  0
  -21.8160   58.8156  -30.4943 O   0  0  0  0  0
  1  2  1  0  0  0
  1  4  1  0  0  0
  2  3  1  0  0  0
  2 18  1  0  0  0
  3 17  1  0  0  0
  5 17  1  0  0  0
  5  6  1  0  0  0
  7  8  1  0  0  0
  9 10  1  0  0  0
 11  6  1  0  0  0
 13 19  1  0  0  0
 14 20  1  0  0  0
 14 22  1  0  0  0
 15 21  1  0  0  0
 15 12  1  0  0  0
 17  4  1  0  0  0
 18 12  1  0  0  0
 21 16  1  0  0  0
  4 23  2  0  0  0
  6  7  2  0  0  0
  8  9  2  0  0  0
 10 11  2  0  0  0
 12 19  2  0  0  0
 13 20  2  0  0  0
 14 15  2  0  0  0
 16 22  2  0  0  0
M  END
> <rmsd>
0.111908242

$$$$
CHEMBL3393349


 24 27  0  0  0  0  0  0  0  0999 V2000
  -19.2596   64.4332  -26.3633 C   0  0  0  0  0
  -19.5581   63.2438  -27.1089 C   0  0  0  0  0
  -20.7872   62.6016  -26.9357 C   0  0  0  0  0
  -21.0973   61.4525  -27.6759 C   0  0  0  0  0
  -20.1465   60.9308  -28.5639 C   0  0  0  0  0
  -18.9158   61.5715  -28.7365 C   0  0  0  0  0
  -18.6233   62.7302  -28.0118 C   0  0  0  0  0
  -22.3730   60.7475  -27.4676 C   0  0  0  0  0
  -23.6266   61.2694  -27.1969 C   0  0  0  0  0
  -24.4201   60.1990  -26.9023 C   0  0  0  0  0
  -26.2456   61.5984  -26.4832 C   0  0  0  0  0
  -24.1763   62.5587  -27.1890 C   0  0  0  0  0
  -23.0264   63.7220  -29.0591 C   0  0  0  0  0
  -21.8836   64.7196  -29.2377 C   0  0  0  0  0
  -22.4696   65.8996  -27.2682 C   0  0  0  0  0
  -23.6573   64.9836  -26.9879 C   0  0  0  0  0
  -21.1279   66.9023  -28.8956 C   0  0  0  0  0
  -22.5006   59.3645  -27.3467 C   0  0  0  0  0
  -19.0202   65.3929  -25.7627 N   0  0  0  0  0
  -25.7170   60.3421  -26.5385 N   0  0  0  0  0
  -25.4837   62.6862  -26.8119 N   0  0  0  0  0
  -23.4573   63.7027  -27.6613 N   0  0  0  0  0
  -22.2696   66.0260  -28.7099 N   0  0  0  0  0
  -23.7667   59.0294  -26.9981 N   0  0  0  0  0
  2  1  1  0  0  0
  3  4  1  0  0  0
  4  8  1  0  0  0
  5  6  1  0  0  0
  7  2  1  0  0  0
  8  9  1  0  0  0
  9 10  1  0  0  0
 10 24  1  0  0  0
 11 20  1  0  0  0
 12 21  1  0  0  0
 12 22  1  0  0  0
 13 22  1  0  0  0
 13 14  1  0  0  0
 14 23  1  0  0  0
 15 23  1  0  0  0
 15 16  1  0  0  0
 16 22  1  0  0  0
 17 23  1  0  0  0
 24 18  1  0  0  0
  2  3  2  0  0  0
  4  5  2  0  0  0
  6  7  2  0  0  0
 10 20  2  0  0  0
 11 21  2  0  0  0
 12  9  2  0  0  0
 18  8  2  0  0  0
  1 19  3  0  0  0
M  END
> <rmsd>
0.37469548

$$$$
CHEMBL3715062


 23 25  0  0  0  0  0  0  0  0999 V2000
  -25.3107   60.3515  -26.6777 N   0  0  0  0  0
  -25.1020   62.7072  -26.8845 N   0  0  0  0  0
  -23.4653   58.8185  -27.0388 N   0  0  0  0  0
  -22.9108   63.5441  -27.3939 N   0  0  0  0  0
  -18.4603   58.9461  -27.8115 N   0  0  0  0  0
  -25.8633   61.6029  -26.6336 C   0  0  0  0  0
  -23.7894   62.5410  -27.1741 C   0  0  0  0  0
  -23.2121   61.2930  -27.2195 C   0  0  0  0  0
  -23.9918   60.1552  -26.9768 C   0  0  0  0  0
  -23.9322   57.8092  -26.0999 C   0  0  0  0  0
  -23.3529   58.0713  -24.7225 C   0  0  0  0  0
  -23.8543   57.0194  -23.7565 C   0  0  0  0  0
  -22.6280   58.3749  -28.1458 C   0  0  0  0  0
  -23.3949   58.4420  -29.4540 C   0  0  0  0  0
  -22.4883   58.0194  -30.5899 C   0  0  0  0  0
  -21.8773   61.5206  -27.4663 C   0  0  0  0  0
  -21.7409   62.8907  -27.5737 C   0  0  0  0  0
  -20.5008   63.4787  -27.8079 C   0  0  0  0  0
  -19.3844   62.6330  -27.9284 C   0  0  0  0  0
  -19.5161   61.2290  -27.8064 C   0  0  0  0  0
  -20.7840   60.6639  -27.5643 C   0  0  0  0  0
  -18.3329   60.3603  -27.9302 C   0  0  0  0  0
  -17.1961   60.8599  -28.1429 O   0  0  0  0  0
  4  7  1  0  0  0
  6  2  1  0  0  0
  7  8  1  0  0  0
  8 16  1  0  0  0
  9  3  1  0  0  0
  9  1  1  0  0  0
 10  3  1  0  0  0
 10 11  1  0  0  0
 11 12  1  0  0  0
 13  3  1  0  0  0
 13 14  1  0  0  0
 14 15  1  0  0  0
 17  4  1  0  0  0
 17 18  1  0  0  0
 19 20  1  0  0  0
 20 22  1  0  0  0
 21 16  1  0  0  0
 22  5  1  0  0  0
  6  1  2  0  0  0
  7  2  2  0  0  0
  8  9  2  0  0  0
 16 17  2  0  0  0
 18 19  2  0  0  0
 20 21  2  0  0  0
 22 23  2  0  0  0
M  END
> <rmsd>
0.303525627

$$$$
CHEMBL3717493


 23 26  0  0  0  0  0  0  0  0999 V2000
  -23.8717   56.2023  -28.0522 C   0  0  0  0  0
  -24.7315   56.7414  -26.9109 C   0  0  0  0  0
  -23.9625   57.8022  -26.1265 C   0  0  0  0  0
  -22.6678   58.3860  -28.1857 C   0  0  0  0  0
  -23.4460   57.3399  -28.9771 C   0  0  0  0  0
  -23.9906   60.1564  -26.9783 C   0  0  0  0  0
  -25.8645   61.6024  -26.6355 C   0  0  0  0  0
  -23.7896   62.5413  -27.1750 C   0  0  0  0  0
  -23.2124   61.2941  -27.2212 C   0  0  0  0  0
  -21.8779   61.5208  -27.4679 C   0  0  0  0  0
  -21.7410   62.8910  -27.5738 C   0  0  0  0  0
  -20.5004   63.4784  -27.8069 C   0  0  0  0  0
  -19.3845   62.6320  -27.9274 C   0  0  0  0  0
  -19.5167   61.2281  -27.8071 C   0  0  0  0  0
  -20.7855   60.6629  -27.5666 C   0  0  0  0  0
  -18.3328   60.3602  -27.9301 C   0  0  0  0  0
  -23.4617   58.8249  -27.0409 N   0  0  0  0  0
  -25.3099   60.3515  -26.6798 N   0  0  0  0  0
  -25.1023   62.7066  -26.8855 N   0  0  0  0  0
  -22.9108   63.5447  -27.3937 N   0  0  0  0  0
  -17.0465   60.9238  -28.1706 N   0  0  0  0  0
  -27.2441   61.7522  -26.3248 N   0  0  0  0  0
  -18.4465   59.1099  -27.8241 O   0  0  0  0  0
  1  2  1  0  0  0
  2  3  1  0  0  0
  3 17  1  0  0  0
  4 17  1  0  0  0
  4  5  1  0  0  0
  5  1  1  0  0  0
  7 18  1  0  0  0
  7 22  1  0  0  0
  8 19  1  0  0  0
  9 10  1  0  0  0
  9  6  1  0  0  0
 11 20  1  0  0  0
 11 12  1  0  0  0
 13 14  1  0  0  0
 14 16  1  0  0  0
 15 10  1  0  0  0
 16 21  1  0  0  0
 17  6  1  0  0  0
 20  8  1  0  0  0
  6 18  2  0  0  0
  7 19  2  0  0  0
  8  9  2  0  0  0
 10 11  2  0  0  0
 12 13  2  0  0  0
 14 15  2  0  0  0
 16 23  2  0  0  0
M  END
> <rmsd>
0.303962469

$$$$
CHEMBL3716812


 23 26  0  0  0  0  0  0  0  0999 V2000
  -25.3284   60.3462  -26.7836 N   0  0  0  0  0
  -25.1027   62.7070  -26.8846 N   0  0  0  0  0
  -23.4472   58.8307  -26.9780 N   0  0  0  0  0
  -22.8904   63.5514  -27.2823 N   0  0  0  0  0
  -17.0973   60.9098  -28.4364 N   0  0  0  0  0
  -25.8836   61.5969  -26.7396 C   0  0  0  0  0
  -23.7712   62.5473  -27.0746 C   0  0  0  0  0
  -23.1943   61.3003  -27.1248 C   0  0  0  0  0
  -23.9870   60.1584  -26.9645 C   0  0  0  0  0
  -22.2964   58.4958  -26.1338 C   0  0  0  0  0
  -22.0227   56.9938  -26.1428 C   0  0  0  0  0
  -23.3024   56.2237  -25.8153 C   0  0  0  0  0
  -24.5046   56.6357  -26.6813 C   0  0  0  0  0
  -24.1890   57.7698  -27.6580 C   0  0  0  0  0
  -21.8654   61.5254  -27.3991 C   0  0  0  0  0
  -21.7231   62.8968  -27.4773 C   0  0  0  0  0
  -20.4924   63.4812  -27.7638 C   0  0  0  0  0
  -19.3940   62.6299  -27.9764 C   0  0  0  0  0
  -19.5368   61.2234  -27.9098 C   0  0  0  0  0
  -20.7968   60.6608  -27.6223 C   0  0  0  0  0
  -18.3738   60.3495  -28.1424 C   0  0  0  0  0
  -27.3478   61.7467  -26.5351 C   0  0  0  0  0
  -18.4970   59.0969  -28.0830 O   0  0  0  0  0
  4  7  1  0  0  0
  6  2  1  0  0  0
  7  8  1  0  0  0
  8 15  1  0  0  0
  9  3  1  0  0  0
  9  1  1  0  0  0
 10  3  1  0  0  0
 10 11  1  0  0  0
 11 12  1  0  0  0
 12 13  1  0  0  0
 13 14  1  0  0  0
 14  3  1  0  0  0
 16  4  1  0  0  0
 16 17  1  0  0  0
 18 19  1  0  0  0
 19 21  1  0  0  0
 20 15  1  0  0  0
 21  5  1  0  0  0
 22  6  1  0  0  0
  6  1  2  0  0  0
  7  2  2  0  0  0
  8  9  2  0  0  0
 15 16  2  0  0  0
 17 18  2  0  0  0
 19 20  2  0  0  0
 21 23  2  0  0  0
M  END
> <rmsd>
0.303946197

$$$$
CHEMBL258838


 24 28  0  0  0  0  0  0  0  0999 V2000
  -21.5761   64.1684  -29.2823 C   0  0  0  0  0
  -21.2796   65.5844  -28.7634 C   0  0  0  0  0
  -21.5294   66.6698  -29.8148 C   0  0  0  0  0
  -22.0189   65.1892  -31.6018 C   0  0  0  0  0
  -21.3743   64.0431  -30.7993 C   0  0  0  0  0
  -22.8464   67.3772  -31.6099 C   0  0  0  0  0
  -23.0183   63.7589  -28.8973 C   0  0  0  0  0
  -24.0099   61.9286  -27.4239 C   0  0  0  0  0
  -26.1023   62.1270  -26.2919 C   0  0  0  0  0
  -25.2344   60.0027  -26.7341 C   0  0  0  0  0
  -24.1450   60.5416  -27.3401 C   0  0  0  0  0
  -23.3774   59.5048  -27.8202 C   0  0  0  0  0
  -24.0802   58.3589  -27.4378 C   0  0  0  0  0
  -21.5225   62.2710  -27.8888 C   0  0  0  0  0
  -20.7347   63.1647  -28.5640 C   0  0  0  0  0
  -19.3396   63.0956  -28.4967 C   0  0  0  0  0
  -18.7578   62.0913  -27.7075 C   0  0  0  0  0
  -19.5692   61.1889  -26.9955 C   0  0  0  0  0
  -20.9673   61.2791  -27.0760 C   0  0  0  0  0
  -22.5674   66.2444  -30.7470 N   0  0  0  0  0
  -22.8982   62.5547  -28.0785 N   0  0  0  0  0
  -25.0143   62.6932  -26.9008 N   0  0  0  0  0
  -26.2179   60.7693  -26.2046 N   0  0  0  0  0
  -25.2225   58.6642  -26.7727 N   0  0  0  0  0
  1  2  1  0  0  0
  1  7  1  0  0  0
  1 15  1  0  0  0
  2  3  1  0  0  0
  3 20  1  0  0  0
  4 20  1  0  0  0
  4  5  1  0  0  0
  5  1  1  0  0  0
  6 20  1  0  0  0
  7 21  1  0  0  0
  9 22  1  0  0  0
 10 23  1  0  0  0
 11 12  1  0  0  0
 11  8  1  0  0  0
 13 24  1  0  0  0
 15 16  1  0  0  0
 17 18  1  0  0  0
 19 14  1  0  0  0
 21  8  1  0  0  0
 21 14  1  0  0  0
 24 10  1  0  0  0
  8 22  2  0  0  0
  9 23  2  0  0  0
 10 11  2  0  0  0
 12 13  2  0  0  0
 14 15  2  0  0  0
 16 17  2  0  0  0
 18 19  2  0  0  0
M  END
> <rmsd>
0.158179834

$$$$
CHEMBL4448573


 30 34  0  0  0  0  0  0  0  0999 V2000
  -22.6925   61.1334  -30.8854 C   0  0  0  0  0
  -21.9688   62.4687  -31.0579 C   0  0  0  0  0
  -21.9874   63.2890  -29.7609 C   0  0  0  0  0
  -23.4290   63.4701  -29.2596 C   0  0  0  0  0
  -24.1253   61.3743  -30.4245 C   0  0  0  0  0
  -24.7469   61.7503  -27.9837 C   0  0  0  0  0
  -25.4251   62.2470  -25.7438 C   0  0  0  0  0
  -25.8359   60.1194  -26.6154 C   0  0  0  0  0
  -25.2651   60.4607  -27.8017 C   0  0  0  0  0
  -25.3228   59.3535  -28.6196 C   0  0  0  0  0
  -25.9539   58.3821  -27.8393 C   0  0  0  0  0
  -21.0270   62.7366  -28.7352 C   0  0  0  0  0
  -19.6547   62.7514  -29.0175 C   0  0  0  0  0
  -18.7238   62.2551  -28.0928 C   0  0  0  0  0
  -19.1775   61.7444  -26.8729 C   0  0  0  0  0
  -20.5425   61.7291  -26.5768 C   0  0  0  0  0
  -21.4627   62.2244  -27.5029 C   0  0  0  0  0
  -16.6631   62.7276  -29.5487 C   0  0  0  0  0
  -15.1950   62.6550  -29.6544 C   0  0  0  0  0
  -14.4337   62.1282  -28.6007 C   0  0  0  0  0
  -13.0409   62.0590  -28.7000 C   0  0  0  0  0
  -12.3990   62.5161  -29.8540 C   0  0  0  0  0
  -13.1495   63.0424  -30.9087 C   0  0  0  0  0
  -14.5423   63.1118  -30.8094 C   0  0  0  0  0
  -24.1153   62.1799  -29.2060 N   0  0  0  0  0
  -24.8448   62.6146  -26.9276 N   0  0  0  0  0
  -25.9265   60.9888  -25.5812 N   0  0  0  0  0
  -26.2689   58.8521  -26.6072 N   0  0  0  0  0
  -17.3147   62.2552  -28.3594 N   0  0  0  0  0
  -17.3358   63.2032  -30.5036 O   0  0  0  0  0
  1  2  1  0  0  0
  2  3  1  0  0  0
  3  4  1  0  0  0
  3 12  1  0  0  0
  4 25  1  0  0  0
  5 25  1  0  0  0
  5  1  1  0  0  0
  7 26  1  0  0  0
  8 27  1  0  0  0
  9 10  1  0  0  0
  9  6  1  0  0  0
 11 28  1  0  0  0
 13 14  1  0  0  0
 14 29  1  0  0  0
 15 16  1  0  0  0
 17 12  1  0  0  0
 18 19  1  0  0  0
 20 21  1  0  0  0
 22 23  1  0  0  0
 24 19  1  0  0  0
 25  6  1  0  0  0
 28  8  1  0  0  0
 29 18  1  0  0  0
  6 26  2  0  0  0
  7 27  2  0  0  0
  8  9  2  0  0  0
 10 11  2  0  0  0
 12 13  2  0  0  0
 14 15  2  0  0  0
 16 17  2  0  0  0
 18 30  2  0  0  0
 19 20  2  0  0  0
 21 22  2  0  0  0
 23 24  2  0  0  0
M  END
> <rmsd>
0.31873554

$$$$
CHEMBL4545883


 28 31  0  0  0  0  0  0  0  0999 V2000
  -24.2638   57.4558  -28.0946 C   0  0  0  0  0
  -24.8461   57.5104  -26.6900 C   0  0  0  0  0
  -25.6721   56.2581  -26.4619 C   0  0  0  0  0
  -25.3250   60.0373  -26.7142 C   0  0  0  0  0
  -26.2623   61.0696  -26.5851 C   0  0  0  0  0
  -27.6127   60.8206  -26.3164 C   0  0  0  0  0
  -28.4944   61.8983  -26.2002 C   0  0  0  0  0
  -26.7337   63.4420  -26.6088 C   0  0  0  0  0
  -25.8181   62.3958  -26.7329 C   0  0  0  0  0
  -23.6106   61.6374  -27.1152 C   0  0  0  0  0
  -22.1929   61.9328  -27.3947 C   0  0  0  0  0
  -21.2619   60.8933  -27.5161 C   0  0  0  0  0
  -19.9236   61.1921  -27.7795 C   0  0  0  0  0
  -20.4105   63.5146  -27.8040 C   0  0  0  0  0
  -21.7575   63.2564  -27.5410 C   0  0  0  0  0
  -23.7333   57.5986  -25.6388 C   0  0  0  0  0
  -23.0452   55.6529  -24.5398 C   0  0  0  0  0
  -22.1963   54.3790  -24.5864 C   0  0  0  0  0
  -20.8543   54.6057  -25.2868 C   0  0  0  0  0
  -20.3956   56.0517  -25.1272 C   0  0  0  0  0
  -21.4404   57.0304  -25.6940 C   0  0  0  0  0
  -21.0152   57.4363  -27.0945 C   0  0  0  0  0
  -25.7298   58.6673  -26.5685 N   0  0  0  0  0
  -28.0416   63.1733  -26.3473 N   0  0  0  0  0
  -24.5112   62.6510  -26.9928 N   0  0  0  0  0
  -24.0257   60.3476  -26.9758 N   0  0  0  0  0
  -19.5283   62.4858  -27.9170 N   0  0  0  0  0
  -22.8068   56.4742  -25.7276 N   0  0  0  0  0
  1  2  1  0  0  0
  2  3  1  0  0  0
  2 23  1  0  0  0
  2 16  1  0  0  0
  4  5  1  0  0  0
  6  7  1  0  0  0
  8 24  1  0  0  0
  9 25  1  0  0  0
  9  5  1  0  0  0
 10 26  1  0  0  0
 10 11  1  0  0  0
 12 13  1  0  0  0
 14 27  1  0  0  0
 15 11  1  0  0  0
 16 28  1  0  0  0
 17 28  1  0  0  0
 17 18  1  0  0  0
 18 19  1  0  0  0
 19 20  1  0  0  0
 20 21  1  0  0  0
 21 22  1  0  0  0
 21 28  1  0  0  0
 23  4  1  0  0  0
  4 26  2  0  0  0
  5  6  2  0  0  0
  7 24  2  0  0  0
  8  9  2  0  0  0
 10 25  2  0  0  0
 11 12  2  0  0  0
 13 27  2  0  0  0
 14 15  2  0  0  0
M  END
> <rmsd>
0.455076814

$$$$
CHEMBL3715766


 24 27  0  0  0  0  0  0  0  0999 V2000
  -27.3054   61.7571  -26.3086 C   0  0  0  0  0
  -25.8639   61.6014  -26.6340 C   0  0  0  0  0
  -23.7900   62.5419  -27.1746 C   0  0  0  0  0
  -23.2125   61.2949  -27.2209 C   0  0  0  0  0
  -21.8783   61.5213  -27.4674 C   0  0  0  0  0
  -21.7412   62.8914  -27.5734 C   0  0  0  0  0
  -20.5002   63.4783  -27.8066 C   0  0  0  0  0
  -19.3847   62.6313  -27.9274 C   0  0  0  0  0
  -19.5181   61.2282  -27.8071 C   0  0  0  0  0
  -20.7865   60.6626  -27.5663 C   0  0  0  0  0
  -18.3329   60.3646  -27.9311 C   0  0  0  0  0
  -15.9071   60.1481  -28.2947 C   0  0  0  0  0
  -23.9896   60.1571  -26.9773 C   0  0  0  0  0
  -22.6847   58.3955  -28.2047 C   0  0  0  0  0
  -22.3992   56.8965  -28.1551 C   0  0  0  0  0
  -23.6966   56.1208  -27.9251 C   0  0  0  0  0
  -24.5125   56.6324  -26.7262 C   0  0  0  0  0
  -23.8859   57.8471  -26.0393 C   0  0  0  0  0
  -25.1028   62.7064  -26.8846 N   0  0  0  0  0
  -22.9112   63.5453  -27.3933 N   0  0  0  0  0
  -25.3088   60.3507  -26.6779 N   0  0  0  0  0
  -23.4585   58.8272  -27.0368 N   0  0  0  0  0
  -18.4500   59.1121  -27.8250 O   0  0  0  0  0
  -17.0804   60.9368  -28.1669 O   0  0  0  0  0
  1  2  1  0  0  0
  2 21  1  0  0  0
  3 19  1  0  0  0
  4  5  1  0  0  0
  4 13  1  0  0  0
  6 20  1  0  0  0
  6  7  1  0  0  0
  8  9  1  0  0  0
  9 11  1  0  0  0
 10  5  1  0  0  0
 11 24  1  0  0  0
 12 24  1  0  0  0
 13 22  1  0  0  0
 14 22  1  0  0  0
 14 15  1  0  0  0
 15 16  1  0  0  0
 16 17  1  0  0  0
 17 18  1  0  0  0
 18 22  1  0  0  0
 20  3  1  0  0  0
  2 19  2  0  0  0
  3  4  2  0  0  0
  5  6  2  0  0  0
  7  8  2  0  0  0
  9 10  2  0  0  0
 11 23  2  0  0  0
 13 21  2  0  0  0
M  END
> <rmsd>
0.304201901

$$$$
CHEMBL3669559


 31 36  0  0  0  0  0  0  0  0999 V2000
  -22.4402   61.6414  -31.3515 O   0  0  0  0  0
  -22.3662   62.8486  -31.7110 C   0  0  0  0  0
  -19.8743   62.9921  -31.3867 C   0  0  0  0  0
  -19.9305   63.3925  -29.9470 C   0  0  0  0  0
  -19.7120   64.6690  -29.4408 C   0  0  0  0  0
  -20.3658   63.4494  -27.7966 C   0  0  0  0  0
  -20.7615   62.9913  -26.5413 C   0  0  0  0  0
  -21.1523   61.6445  -26.4305 C   0  0  0  0  0
  -21.1409   60.7992  -27.5606 C   0  0  0  0  0
  -20.7400   61.2901  -28.8156 C   0  0  0  0  0
  -20.3553   62.6277  -28.8894 C   0  0  0  0  0
  -21.0287   64.4665  -33.0675 C   0  0  0  0  0
  -22.1303   65.4910  -32.8228 C   0  0  0  0  0
  -23.4888   64.7864  -32.7849 C   0  0  0  0  0
  -23.5753   63.7579  -31.6500 C   0  0  0  0  0
  -23.5445   64.5177  -30.3046 C   0  0  0  0  0
  -24.7106   64.1893  -29.3762 C   0  0  0  0  0
  -25.2032   62.0683  -30.6372 C   0  0  0  0  0
  -24.8863   62.9687  -31.8395 C   0  0  0  0  0
  -24.8295   62.0303  -28.1219 C   0  0  0  0  0
  -24.7113   62.0768  -25.7326 C   0  0  0  0  0
  -24.5805   60.0266  -26.8423 C   0  0  0  0  0
  -24.4688   58.4734  -28.2926 C   0  0  0  0  0
  -24.6261   59.6571  -29.0166 C   0  0  0  0  0
  -24.6997   60.6373  -28.0512 C   0  0  0  0  0
  -21.0941   63.4077  -32.0674 N   0  0  0  0  0
  -19.9729   64.6975  -28.1091 N   0  0  0  0  0
  -24.9361   62.7482  -29.3667 N   0  0  0  0  0
  -24.8264   62.7154  -26.9377 N   0  0  0  0  0
  -24.5863   60.7200  -25.6793 N   0  0  0  0  0
  -24.4388   58.7003  -26.9565 N   0  0  0  0  0
  2 26  1  0  0  0
  3 26  1  0  0  0
  3  4  1  0  0  0
  5 27  1  0  0  0
  7  8  1  0  0  0
  9 10  1  0  0  0
 11  4  1  0  0  0
 11  6  1  0  0  0
 12 26  1  0  0  0
 12 13  1  0  0  0
 13 14  1  0  0  0
 14 15  1  0  0  0
 15 16  1  0  0  0
 15  2  1  0  0  0
 16 17  1  0  0  0
 17 28  1  0  0  0
 18 28  1  0  0  0
 18 19  1  0  0  0
 19 15  1  0  0  0
 21 29  1  0  0  0
 22 30  1  0  0  0
 22 31  1  0  0  0
 24 25  1  0  0  0
 25 20  1  0  0  0
 27  6  1  0  0  0
 28 20  1  0  0  0
 31 23  1  0  0  0
  2  1  2  0  0  0
  4  5  2  0  0  0
  6  7  2  0  0  0
  8  9  2  0  0  0
 10 11  2  0  0  0
 20 29  2  0  0  0
 21 30  2  0  0  0
 23 24  2  0  0  0
 25 22  2  0  0  0
M  END
> <rmsd>
0.320885867

$$$$
CHEMBL3393341


 24 27  0  0  0  0  0  0  0  0999 V2000
  -23.0198   67.1467  -28.4249 C   0  0  0  0  0
  -22.5431   65.8328  -27.8440 C   0  0  0  0  0
  -21.7178   66.0960  -26.5893 C   0  0  0  0  0
  -21.2375   64.7764  -25.9958 C   0  0  0  0  0
  -22.4291   63.8820  -25.6636 C   0  0  0  0  0
  -23.7452   64.9579  -27.5046 C   0  0  0  0  0
  -24.1249   62.5716  -26.9165 C   0  0  0  0  0
  -26.2937   61.5864  -26.7481 C   0  0  0  0  0
  -24.4158   60.2001  -26.8818 C   0  0  0  0  0
  -22.4502   59.3782  -27.0790 C   0  0  0  0  0
  -22.3117   60.7640  -27.1371 C   0  0  0  0  0
  -21.0616   61.4645  -27.4734 C   0  0  0  0  0
  -19.8440   61.0183  -26.9415 C   0  0  0  0  0
  -18.6471   61.6495  -27.2930 C   0  0  0  0  0
  -18.6593   62.7214  -28.1899 C   0  0  0  0  0
  -19.8674   63.1575  -28.7407 C   0  0  0  0  0
  -21.0633   62.5253  -28.3893 C   0  0  0  0  0
  -19.8820   64.2563  -29.6639 C   0  0  0  0  0
  -23.5878   61.2793  -26.9884 C   0  0  0  0  0
  -23.3033   63.7401  -26.8285 N   0  0  0  0  0
  -25.4827   62.6865  -26.8121 N   0  0  0  0  0
  -25.7594   60.3314  -26.7710 N   0  0  0  0  0
  -23.7514   59.0334  -26.9197 N   0  0  0  0  0
  -19.8949   65.1430  -30.4074 N   0  0  0  0  0
  2  1  1  0  0  0
  2  3  1  0  0  0
  3  4  1  0  0  0
  4  5  1  0  0  0
  5 20  1  0  0  0
  6 20  1  0  0  0
  6  2  1  0  0  0
  8 21  1  0  0  0
  9 22  1  0  0  0
  9 23  1  0  0  0
 11 12  1  0  0  0
 11 19  1  0  0  0
 13 14  1  0  0  0
 15 16  1  0  0  0
 16 18  1  0  0  0
 17 12  1  0  0  0
 19  7  1  0  0  0
 20  7  1  0  0  0
 23 10  1  0  0  0
  7 21  2  0  0  0
  8 22  2  0  0  0
 10 11  2  0  0  0
 12 13  2  0  0  0
 14 15  2  0  0  0
 16 17  2  0  0  0
 19  9  2  0  0  0
 18 24  3  0  0  0
M  END
> <rmsd>
0.373025686

$$$$
CHEMBL2152300


 23 26  0  0  0  0  0  0  0  0999 V2000
  -17.7671   56.8853  -24.6156 N   0  0  0  0  0
  -22.5105   57.4251  -25.6945 N   0  0  0  0  0
  -23.9928   60.5912  -26.9926 N   0  0  0  0  0
  -25.2338   62.4839  -26.8485 N   0  0  0  0  0
  -22.0225   64.1348  -27.5199 N   0  0  0  0  0
  -19.9717   62.9107  -27.8522 N   0  0  0  0  0
  -18.7904   57.3730  -24.8486 C   0  0  0  0  0
  -20.0888   57.9934  -25.1444 C   0  0  0  0  0
  -21.1813   56.9842  -25.3799 C   0  0  0  0  0
  -23.5870   56.4581  -25.8980 C   0  0  0  0  0
  -24.3467   56.7940  -27.1789 C   0  0  0  0  0
  -24.8079   58.2493  -27.1528 C   0  0  0  0  0
  -23.6021   59.1813  -26.9920 C   0  0  0  0  0
  -25.2285   61.1226  -26.7881 C   0  0  0  0  0
  -23.9491   62.7905  -27.0996 C   0  0  0  0  0
  -23.3712   64.0608  -27.2648 C   0  0  0  0  0
  -21.2857   62.9850  -27.6067 C   0  0  0  0  0
  -19.7035   61.5785  -27.8461 C   0  0  0  0  0
  -20.8459   60.8082  -27.5974 C   0  0  0  0  0
  -21.8395   61.7453  -27.4482 C   0  0  0  0  0
  -23.2009   61.6547  -27.1872 C   0  0  0  0  0
  -22.8497   58.8455  -25.7057 C   0  0  0  0  0
  -20.9339   55.7478  -25.3096 O   0  0  0  0  0
  3 14  1  0  0  0
  6 18  1  0  0  0
  8  7  1  0  0  0
  8  9  1  0  0  0
  9  2  1  0  0  0
 10  2  1  0  0  0
 10 11  1  0  0  0
 11 12  1  0  0  0
 12 13  1  0  0  0
 13  3  1  0  0  0
 13 22  1  0  0  0
 15  4  1  0  0  0
 16  5  1  0  0  0
 17  6  1  0  0  0
 19 20  1  0  0  0
 20 17  1  0  0  0
 21  3  1  0  0  0
 21 15  1  0  0  0
 22  2  1  0  0  0
  9 23  2  0  0  0
 14  4  2  0  0  0
 15 16  2  0  0  0
 17  5  2  0  0  0
 18 19  2  0  0  0
 20 21  2  0  0  0
  7  1  3  0  0  0
M  END
> <rmsd>
0.528697848

$$$$
CHEMBL2314501


 24 27  0  0  0  0  0  0  0  0999 V2000
  -26.4575   60.5754  -26.5235 N   0  0  0  0  0
  -25.4790   62.7153  -26.8139 N   0  0  0  0  0
  -25.1946   58.5005  -26.6653 N   0  0  0  0  0
  -26.4599   55.8351  -27.9833 N   0  0  0  0  0
  -23.1269   62.7347  -27.2588 N   0  0  0  0  0
  -27.8396   62.5481  -26.3540 N   0  0  0  0  0
  -26.5727   61.9384  -26.5674 C   0  0  0  0  0
  -24.2854   62.1079  -27.0125 C   0  0  0  0  0
  -24.1456   60.7527  -26.9740 C   0  0  0  0  0
  -25.2616   59.9411  -26.7236 C   0  0  0  0  0
  -26.4076   57.7385  -26.3865 C   0  0  0  0  0
  -26.9594   57.1842  -27.6943 C   0  0  0  0  0
  -24.9971   55.6745  -27.8981 C   0  0  0  0  0
  -24.1876   56.9226  -28.2566 C   0  0  0  0  0
  -23.9785   57.7662  -27.0058 C   0  0  0  0  0
  -26.8520   55.5219  -29.3463 C   0  0  0  0  0
  -22.8175   60.4644  -27.2062 C   0  0  0  0  0
  -22.2317   61.7226  -27.3770 C   0  0  0  0  0
  -20.8016   61.9464  -27.6546 C   0  0  0  0  0
  -20.3097   63.2505  -27.8091 C   0  0  0  0  0
  -18.9542   63.4684  -28.0728 C   0  0  0  0  0
  -18.0806   62.3833  -28.1838 C   0  0  0  0  0
  -18.5621   61.0803  -28.0313 C   0  0  0  0  0
  -19.9175   60.8624  -27.7677 C   0  0  0  0  0
  5  8  1  0  0  0
  7  2  1  0  0  0
  7  6  1  0  0  0
  8  9  1  0  0  0
  9 17  1  0  0  0
 10  3  1  0  0  0
 10  1  1  0  0  0
 11  3  1  0  0  0
 11 12  1  0  0  0
 12  4  1  0  0  0
 13  4  1  0  0  0
 13 14  1  0  0  0
 14 15  1  0  0  0
 15  3  1  0  0  0
 16  4  1  0  0  0
 18  5  1  0  0  0
 18 19  1  0  0  0
 20 21  1  0  0  0
 22 23  1  0  0  0
 24 19  1  0  0  0
  7  1  2  0  0  0
  8  2  2  0  0  0
  9 10  2  0  0  0
 17 18  2  0  0  0
 19 20  2  0  0  0
 21 22  2  0  0  0
 23 24  2  0  0  0
M  END
> <rmsd>
0.626891732

$$$$
CHEMBL3393342


 24 27  0  0  0  0  0  0  0  0999 V2000
  -19.8915   64.2496  -29.6703 C   0  0  0  0  0
  -19.8724   63.1543  -28.7432 C   0  0  0  0  0
  -21.0667   62.5238  -28.3839 C   0  0  0  0  0
  -21.0609   61.4649  -27.4658 C   0  0  0  0  0
  -19.8411   61.0196  -26.9383 C   0  0  0  0  0
  -18.6457   61.6501  -27.2968 C   0  0  0  0  0
  -18.6618   62.7196  -28.1967 C   0  0  0  0  0
  -22.3095   60.7639  -27.1257 C   0  0  0  0  0
  -23.5858   61.2789  -26.9804 C   0  0  0  0  0
  -24.4148   60.1998  -26.8822 C   0  0  0  0  0
  -26.2929   61.5868  -26.7585 C   0  0  0  0  0
  -24.1227   62.5713  -26.9080 C   0  0  0  0  0
  -23.6902   64.9285  -27.5657 C   0  0  0  0  0
  -22.9681   66.1767  -27.0679 C   0  0  0  0  0
  -21.4814   65.8822  -26.9263 C   0  0  0  0  0
  -21.2054   64.7494  -25.9301 C   0  0  0  0  0
  -22.4206   63.8601  -25.6379 C   0  0  0  0  0
  -23.1723   67.3066  -28.0542 C   0  0  0  0  0
  -22.4487   59.3778  -27.0737 C   0  0  0  0  0
  -19.9081   65.1336  -30.4170 N   0  0  0  0  0
  -25.7591   60.3315  -26.7809 N   0  0  0  0  0
  -25.4810   62.6866  -26.8130 N   0  0  0  0  0
  -23.3027   63.7392  -26.8017 N   0  0  0  0  0
  -23.7508   59.0330  -26.9212 N   0  0  0  0  0
  2  1  1  0  0  0
  3  4  1  0  0  0
  4  8  1  0  0  0
  5  6  1  0  0  0
  7  2  1  0  0  0
  8  9  1  0  0  0
  9 10  1  0  0  0
 10 24  1  0  0  0
 11 21  1  0  0  0
 12 22  1  0  0  0
 12 23  1  0  0  0
 13 23  1  0  0  0
 13 14  1  0  0  0
 14 15  1  0  0  0
 14 18  1  0  0  0
 15 16  1  0  0  0
 16 17  1  0  0  0
 17 23  1  0  0  0
 24 19  1  0  0  0
  2  3  2  0  0  0
  4  5  2  0  0  0
  6  7  2  0  0  0
 10 21  2  0  0  0
 11 22  2  0  0  0
 12  9  2  0  0  0
 19  8  2  0  0  0
  1 20  3  0  0  0
M  END
> <rmsd>
0.372293442

$$$$
CHEMBL4468002


 31 35  0  0  0  0  0  0  0  0999 V2000
  -23.4159   61.7822  -31.6010 C   0  0  0  0  0
  -22.0179   62.0300  -31.0362 C   0  0  0  0  0
  -22.0206   63.0573  -29.8905 C   0  0  0  0  0
  -23.4219   63.3515  -29.3383 C   0  0  0  0  0
  -24.3377   61.2918  -30.4827 C   0  0  0  0  0
  -24.7959   61.7300  -28.0191 C   0  0  0  0  0
  -25.2709   62.2529  -25.7296 C   0  0  0  0  0
  -25.9507   60.1922  -26.5942 C   0  0  0  0  0
  -25.4251   60.4928  -27.8140 C   0  0  0  0  0
  -25.6518   59.4106  -28.6337 C   0  0  0  0  0
  -26.3311   58.4981  -27.8212 C   0  0  0  0  0
  -21.0866   62.6346  -28.7996 C   0  0  0  0  0
  -21.3099   61.4566  -28.0667 C   0  0  0  0  0
  -20.4326   61.0739  -27.0481 C   0  0  0  0  0
  -19.3148   61.8763  -26.7709 C   0  0  0  0  0
  -19.0880   63.0511  -27.4956 C   0  0  0  0  0
  -19.9729   63.4318  -28.5074 C   0  0  0  0  0
  -19.9660   59.3554  -25.2060 C   0  0  0  0  0
  -19.6503   57.3758  -23.6183 C   0  0  0  0  0
  -20.1677   56.1498  -23.1840 C   0  0  0  0  0
  -18.4340   55.9403  -21.5715 C   0  0  0  0  0
  -17.8806   57.1541  -21.9763 C   0  0  0  0  0
  -18.4951   57.8722  -23.0035 C   0  0  0  0  0
  -24.2173   62.1243  -29.2787 N   0  0  0  0  0
  -24.7358   62.5803  -26.9470 N   0  0  0  0  0
  -25.8872   61.0496  -25.5468 N   0  0  0  0  0
  -26.5162   58.9785  -26.5693 N   0  0  0  0  0
  -20.6946   59.8572  -26.3326 N   0  0  0  0  0
  -20.3066   58.0646  -24.6906 N   0  0  0  0  0
  -19.5578   55.4667  -22.1775 N   0  0  0  0  0
  -19.0542   60.0434  -24.6695 O   0  0  0  0  0
  1  2  1  0  0  0
  2  3  1  0  0  0
  3  4  1  0  0  0
  3 12  1  0  0  0
  4 24  1  0  0  0
  5 24  1  0  0  0
  5  1  1  0  0  0
  7 25  1  0  0  0
  8 26  1  0  0  0
  9 10  1  0  0  0
  9  6  1  0  0  0
 11 27  1  0  0  0
 13 14  1  0  0  0
 14 28  1  0  0  0
 15 16  1  0  0  0
 17 12  1  0  0  0
 18 29  1  0  0  0
 20 30  1  0  0  0
 21 22  1  0  0  0
 23 19  1  0  0  0
 24  6  1  0  0  0
 27  8  1  0  0  0
 28 18  1  0  0  0
 29 19  1  0  0  0
  6 25  2  0  0  0
  7 26  2  0  0  0
  8  9  2  0  0  0
 10 11  2  0  0  0
 12 13  2  0  0  0
 14 15  2  0  0  0
 16 17  2  0  0  0
 18 31  2  0  0  0
 19 20  2  0  0  0
 21 30  2  0  0  0
 22 23  2  0  0  0
M  END
> <rmsd>
0.340848774

$$$$
CHEMBL585734


 34 37  0  0  0  0  0  0  0  0999 V2000
  -26.6512   59.6200  -30.0977 C   0  0  0  0  0
  -26.6169   59.6327  -28.6100 C   0  0  0  0  0
  -27.2069   58.6790  -27.7881 C   0  0  0  0  0
  -26.4069   60.1983  -26.5086 C   0  0  0  0  0
  -25.4644   62.1401  -25.6099 C   0  0  0  0  0
  -25.4348   61.8162  -27.9770 C   0  0  0  0  0
  -25.0050   63.7016  -29.5623 C   0  0  0  0  0
  -23.5759   64.1971  -29.3917 C   0  0  0  0  0
  -21.4810   64.0018  -30.6848 C   0  0  0  0  0
  -20.5615   65.6737  -32.1031 C   0  0  0  0  0
  -19.7808   62.8922  -29.1314 C   0  0  0  0  0
  -20.5783   62.9727  -27.9803 C   0  0  0  0  0
  -20.1720   62.3522  -26.7971 C   0  0  0  0  0
  -18.9614   61.6562  -26.7541 C   0  0  0  0  0
  -18.1471   61.5800  -27.8926 C   0  0  0  0  0
  -16.8692   60.8482  -27.8469 C   0  0  0  0  0
  -15.1875   59.4994  -26.5138 C   0  0  0  0  0
  -15.1960   58.6827  -25.2390 C   0  0  0  0  0
  -14.0289   60.4781  -26.4700 C   0  0  0  0  0
  -18.5633   62.2068  -29.0765 C   0  0  0  0  0
  -22.7444   61.8861  -30.0187 C   0  0  0  0  0
  -21.9622   61.1626  -31.1056 C   0  0  0  0  0
  -24.2004   61.4324  -30.1178 C   0  0  0  0  0
  -26.0992   60.6003  -27.7753 C   0  0  0  0  0
  -27.0728   59.0308  -26.4850 N   0  0  0  0  0
  -26.1008   60.9475  -25.4221 N   0  0  0  0  0
  -25.1404   62.5636  -26.8708 N   0  0  0  0  0
  -25.0436   62.2736  -29.2789 N   0  0  0  0  0
  -22.6480   63.3546  -30.1492 N   0  0  0  0  0
  -21.6372   64.9916  -31.5114 N   0  0  0  0  0
  -19.6753   66.2361  -32.5913 N   0  0  0  0  0
  -20.1592   63.5399  -30.3518 N   0  0  0  0  0
  -16.4447   60.2228  -26.6307 N   0  0  0  0  0
  -16.1509   60.7678  -28.8812 O   0  0  0  0  0
  1  2  1  0  0  0
  3 25  1  0  0  0
  5 26  1  0  0  0
  6 27  1  0  0  0
  6 28  1  0  0  0
  7 28  1  0  0  0
  7  8  1  0  0  0
  8 29  1  0  0  0
  9 32  1  0  0  0
 12 13  1  0  0  0
 14 15  1  0  0  0
 15 16  1  0  0  0
 16 33  1  0  0  0
 17 33  1  0  0  0
 17 18  1  0  0  0
 17 19  1  0  0  0
 20 11  1  0  0  0
 21 29  1  0  0  0
 21 22  1  0  0  0
 21 23  1  0  0  0
 23 28  1  0  0  0
 24  2  1  0  0  0
 24  4  1  0  0  0
 25  4  1  0  0  0
 29  9  1  0  0  0
 30 10  1  0  0  0
 32 11  1  0  0  0
  2  3  2  0  0  0
  4 26  2  0  0  0
  5 27  2  0  0  0
  6 24  2  0  0  0
  9 30  2  0  0  0
 11 12  2  0  0  0
 13 14  2  0  0  0
 15 20  2  0  0  0
 16 34  2  0  0  0
 10 31  3  0  0  0
M  END
> <rmsd>
0.761379421

$$$$
CHEMBL3593766


 26 29  0  0  0  0  0  0  0  0999 V2000
  -25.5886   61.6555  -29.1589 C   0  0  0  0  0
  -26.5676   62.6863  -29.0555 C   0  0  0  0  0
  -26.7210   63.3693  -27.8261 C   0  0  0  0  0
  -25.0390   62.0701  -26.8433 C   0  0  0  0  0
  -24.8406   61.3729  -27.9998 C   0  0  0  0  0
  -23.8620   60.4415  -27.7324 C   0  0  0  0  0
  -23.5177   60.6508  -26.3979 C   0  0  0  0  0
  -27.4384   63.0912  -30.1876 C   0  0  0  0  0
  -24.3479   60.0469  -30.8271 C   0  0  0  0  0
  -24.4512   58.6889  -30.1322 C   0  0  0  0  0
  -23.2904   57.7736  -30.5397 C   0  0  0  0  0
  -21.9692   58.5337  -30.7365 C   0  0  0  0  0
  -22.9558   60.6917  -30.7357 C   0  0  0  0  0
  -20.6827   60.4204  -30.1815 C   0  0  0  0  0
  -20.3450   61.1995  -28.9537 C   0  0  0  0  0
  -19.3110   60.7634  -28.1190 C   0  0  0  0  0
  -18.9908   61.4847  -26.9645 C   0  0  0  0  0
  -19.7025   62.6449  -26.6446 C   0  0  0  0  0
  -20.7332   63.0862  -27.4800 C   0  0  0  0  0
  -21.0530   62.3655  -28.6343 C   0  0  0  0  0
  -25.9591   63.0557  -26.7412 N   0  0  0  0  0
  -24.2432   61.6532  -25.8497 N   0  0  0  0  0
  -28.3725   64.1554  -30.0246 N   0  0  0  0  0
  -25.4045   60.9658  -30.4119 N   0  0  0  0  0
  -22.0004   59.8204  -30.0458 N   0  0  0  0  0
  -27.3741   62.5091  -31.3021 O   0  0  0  0  0
  1 24  1  0  0  0
  2  3  1  0  0  0
  2  8  1  0  0  0
  4 21  1  0  0  0
  5  6  1  0  0  0
  5  1  1  0  0  0
  7 22  1  0  0  0
  8 23  1  0  0  0
  9 24  1  0  0  0
  9 10  1  0  0  0
 10 11  1  0  0  0
 11 12  1  0  0  0
 12 25  1  0  0  0
 13 25  1  0  0  0
 13  9  1  0  0  0
 14 25  1  0  0  0
 14 15  1  0  0  0
 16 17  1  0  0  0
 18 19  1  0  0  0
 20 15  1  0  0  0
 22  4  1  0  0  0
  1  2  2  0  0  0
  3 21  2  0  0  0
  4  5  2  0  0  0
  6  7  2  0  0  0
  8 26  2  0  0  0
 15 16  2  0  0  0
 17 18  2  0  0  0
 19 20  2  0  0  0
M  END
> <rmsd>
0.699363828

$$$$
CHEMBL4460419


 31 35  0  0  0  0  0  0  0  0999 V2000
  -23.4041   62.1078  -31.5909 C   0  0  0  0  0
  -21.9961   62.3304  -31.0413 C   0  0  0  0  0
  -21.9814   63.2478  -29.8044 C   0  0  0  0  0
  -23.3775   63.5028  -29.2191 C   0  0  0  0  0
  -24.2983   61.5246  -30.4965 C   0  0  0  0  0
  -24.7452   61.7935  -28.0078 C   0  0  0  0  0
  -25.3670   62.2161  -25.7359 C   0  0  0  0  0
  -25.7083   60.0882  -26.6357 C   0  0  0  0  0
  -25.1969   60.4781  -27.8341 C   0  0  0  0  0
  -25.2198   59.3814  -28.6675 C   0  0  0  0  0
  -25.7729   58.3658  -27.8845 C   0  0  0  0  0
  -21.0461   62.7144  -28.7634 C   0  0  0  0  0
  -21.2752   61.4730  -28.1498 C   0  0  0  0  0
  -20.3999   60.9862  -27.1747 C   0  0  0  0  0
  -19.2796   61.7506  -26.8175 C   0  0  0  0  0
  -19.0448   62.9871  -27.4262 C   0  0  0  0  0
  -19.9279   63.4688  -28.3965 C   0  0  0  0  0
  -19.9230   59.0653  -25.5425 C   0  0  0  0  0
  -19.7827   57.0098  -24.0134 C   0  0  0  0  0
  -18.7351   57.5068  -23.2231 C   0  0  0  0  0
  -18.2222   56.7236  -22.1876 C   0  0  0  0  0
  -18.7548   55.4566  -21.9466 C   0  0  0  0  0
  -19.7994   54.9932  -22.7495 C   0  0  0  0  0
  -24.1691   62.2720  -29.2388 N   0  0  0  0  0
  -24.8433   62.6314  -26.9306 N   0  0  0  0  0
  -25.8025   60.9328  -25.5814 N   0  0  0  0  0
  -26.0722   58.7994  -26.6348 N   0  0  0  0  0
  -20.6766   59.7127  -26.5752 N   0  0  0  0  0
  -20.3539   57.7788  -25.0812 N   0  0  0  0  0
  -20.2862   55.7718  -23.7533 N   0  0  0  0  0
  -18.8986   59.6131  -25.0542 O   0  0  0  0  0
  1  2  1  0  0  0
  2  3  1  0  0  0
  3  4  1  0  0  0
  3 12  1  0  0  0
  4 24  1  0  0  0
  5 24  1  0  0  0
  5  1  1  0  0  0
  7 25  1  0  0  0
  8 26  1  0  0  0
  9 10  1  0  0  0
  9  6  1  0  0  0
 11 27  1  0  0  0
 13 14  1  0  0  0
 14 28  1  0  0  0
 15 16  1  0  0  0
 17 12  1  0  0  0
 18 29  1  0  0  0
 19 30  1  0  0  0
 20 21  1  0  0  0
 22 23  1  0  0  0
 24  6  1  0  0  0
 27  8  1  0  0  0
 28 18  1  0  0  0
 29 19  1  0  0  0
  6 25  2  0  0  0
  7 26  2  0  0  0
  8  9  2  0  0  0
 10 11  2  0  0  0
 12 13  2  0  0  0
 14 15  2  0  0  0
 16 17  2  0  0  0
 18 31  2  0  0  0
 19 20  2  0  0  0
 21 22  2  0  0  0
 23 30  2  0  0  0
M  END
> <rmsd>
0.273326337

$$$$
CHEMBL78377


 27 30  0  0  0  0  0  0  0  0999 V2000
  -29.2598   63.0576  -26.1397 C   0  0  0  0  0
  -27.9021   62.4871  -26.3589 C   0  0  0  0  0
  -25.8124   62.3599  -26.7361 C   0  0  0  0  0
  -23.6130   61.6361  -27.1109 C   0  0  0  0  0
  -22.1952   61.9305  -27.3912 C   0  0  0  0  0
  -21.2652   60.8874  -27.5174 C   0  0  0  0  0
  -19.9214   61.1658  -27.7835 C   0  0  0  0  0
  -19.4968   62.4894  -27.9257 C   0  0  0  0  0
  -20.4157   63.5347  -27.8019 C   0  0  0  0  0
  -21.7595   63.2564  -27.5358 C   0  0  0  0  0
  -25.3342   60.0236  -26.7119 C   0  0  0  0  0
  -24.8480   57.5357  -26.7333 C   0  0  0  0  0
  -24.4810   57.3494  -28.2005 C   0  0  0  0  0
  -25.6966   56.9546  -29.0292 C   0  0  0  0  0
  -25.4305   54.3991  -28.9022 C   0  0  0  0  0
  -26.3339   53.2657  -28.3919 C   0  0  0  0  0
  -27.6447   53.8932  -27.9030 C   0  0  0  0  0
  -27.4254   55.3360  -28.1085 C   0  0  0  0  0
  -26.2392   61.0726  -26.5939 C   0  0  0  0  0
  -27.5909   61.1312  -26.3494 C   0  0  0  0  0
  -28.5266   59.9917  -26.1267 C   0  0  0  0  0
  -26.8093   63.2536  -26.5974 N   0  0  0  0  0
  -24.5162   62.6586  -26.9926 N   0  0  0  0  0
  -24.0294   60.3357  -26.9696 N   0  0  0  0  0
  -25.7538   58.6645  -26.5677 N   0  0  0  0  0
  -26.1613   55.6251  -28.6602 N   0  0  0  0  0
  -28.2731   56.2225  -27.8237 O   0  0  0  0  0
  1  2  1  0  0  0
  2 22  1  0  0  0
  4 23  1  0  0  0
  4  5  1  0  0  0
  6  7  1  0  0  0
  8  9  1  0  0  0
 10  5  1  0  0  0
 11 24  1  0  0  0
 11 25  1  0  0  0
 12 25  1  0  0  0
 12 13  1  0  0  0
 13 14  1  0  0  0
 14 26  1  0  0  0
 15 26  1  0  0  0
 15 16  1  0  0  0
 16 17  1  0  0  0
 17 18  1  0  0  0
 18 26  1  0  0  0
 19 20  1  0  0  0
 19  3  1  0  0  0
 21 20  1  0  0  0
 22  3  1  0  0  0
  3 23  2  0  0  0
  4 24  2  0  0  0
  5  6  2  0  0  0
  7  8  2  0  0  0
  9 10  2  0  0  0
 11 19  2  0  0  0
 18 27  2  0  0  0
 20  2  2  0  0  0
M  END
> <rmsd>
0.45043236

$$$$
