@<TRIPOS>MOLECULE
Molecule PRUEBA3_ligands_10.mol2
     3     0
SMALL
NO_CHARGES
@<TRIPOS>ATOM
      4 ACC       -25.0570   62.7458  -26.8955 HB    3     HB      0.0000
      7 AR        -20.3081   62.1417  -27.7562 AR    6     AR      0.0000
      8 AR        -24.9177   61.3299  -26.8533 AR    7     AR      0.0000
@<TRIPOS>BOND
@<TRIPOS>MOLECULE
PRUEBA3_ligands_10.mol2
    49    53
SMALL
NO_CHARGES
@<TRIPOS>ATOM
      1 N3        -22.7648   62.8772  -27.3801 N.pl3 1     G4     -0.2243
      2 C4        -20.3656   63.2981  -27.8661 C.ar  1     G4      0.0616
      3 N2        -19.2137   62.5900  -27.9880 N.ar  1     G4     -0.2001
      4 C7        -26.0423   60.5519  -26.5647 C.ar  1     G4     -0.0066
      5 C6        -26.1043   61.9410  -26.6320 C.ar  1     G4      0.0339
      6 C9        -23.2461   58.0095  -26.9434 C.3   1     G4      0.0211
      7 C13       -25.3063   56.4092  -25.7369 C.3   1     G4      0.0311
      8 C8        -24.7769   59.9634  -26.7851 C.ar  1     G4      0.1142
      9 N5        -23.6695   60.7085  -27.1188 N.ar  1     G4     -0.2055
     10 C18       -25.2322   52.6330  -27.9632 C.3   1     G4      0.2606
     11 C16       -25.1769   53.6047  -26.7762 C.3   1     G4      0.1012
     12 C1        -18.5562   60.2203  -27.8490 C.3   1     G4      0.0136
     13 N1        -19.5638   61.2873  -27.7972 N.ar  1     G4     -0.1774
     14 C2        -20.9318   61.1224  -27.5471 C.ar  1     G4      0.0228
     15 C3        -21.4655   62.4106  -27.5824 C.ar  1     G4      0.0543
     16 C5        -23.8560   62.0686  -27.1235 C.ar  1     G4      0.2074
     17 N4        -25.0570   62.7458  -26.8955 N.ar  1     G4     -0.2255
     18 N6        -24.5535   58.6026  -26.5952 N.pl3 1     G4     -0.2556
     19 C10       -23.0325   56.7254  -26.1104 C.3   1     G4      0.0311
     20 C11       -23.2310   57.0040  -24.6035 C.3   1     G4     -0.0342
     21 C12       -24.7320   56.8016  -24.3564 C.3   1     G4     -0.0342
     22 C14       -25.7057   57.6849  -26.5195 C.3   1     G4      0.0211
     23 N7        -24.1591   55.8284  -26.4669 N.am  1     G4     -0.2355
     24 C15       -23.9618   54.4612  -26.6750 C.2   1     G4      0.2129
     25 O1        -22.8400   54.0124  -26.8865 O.2   1     G4     -0.2788
     26 C17       -24.9806   52.1015  -26.5660 C.3   1     G4      0.0278
     27 F1        -24.2914   52.6203  -28.9001 F     1     G4     -0.2048
     28 F2        -26.3864   52.4341  -28.5973 F     1     G4     -0.2048
     29 H3        -22.9200   63.8843  -27.4246 H     1     G4      0.1366
     30 H4        -20.4479   64.3932  -27.9692 H     1     G4      0.0859
     31 H7        -26.9357   59.9417  -26.3502 H     1     G4      0.0664
     32 H6        -27.0834   62.4177  -26.4566 H     1     G4      0.0831
     33 H91       -22.4075   58.7348  -26.8256 H     1     G4      0.0446
     34 H92       -23.2862   57.7120  -28.0172 H     1     G4      0.0446
     35 H13       -26.1537   55.6899  -25.6486 H     1     G4      0.0480
     36 H16       -26.1417   54.0458  -26.4330 H     1     G4      0.0452
     37 H11       -18.8427   59.1541  -27.6928 H     1     G4      0.0414
     38 H12       -17.7471   60.4718  -27.1242 H     1     G4      0.0414
     39 H13       -18.0954   60.2747  -28.8629 H     1     G4      0.0414
     40 H2        -21.4707   60.1780  -27.3622 H     1     G4      0.0780
     41 H10       -22.0438   56.2541  -26.3193 H     1     G4      0.0480
     42 H111      -22.8491   57.9984  -24.2740 H     1     G4      0.0281
     43 H112      -22.6806   56.2192  -24.0340 H     1     G4      0.0281
     44 H121      -24.9643   56.0735  -23.5445 H     1     G4      0.0281
     45 H122      -25.1689   57.7866  -24.0699 H     1     G4      0.0281
     46 H141      -26.6075   58.1778  -26.0870 H     1     G4      0.0446
     47 H142      -25.9582   57.3755  -27.5605 H     1     G4      0.0446
     48 H171      -24.1888   51.4719  -26.0971 H     1     G4      0.0332
     49 H172      -25.9562   51.7049  -26.1997 H     1     G4      0.0332
@<TRIPOS>BOND
     1     1    15    1 
     2     1    16    1 
     3     1    29    1 
     4     2     3    ar
     5     2    15    ar
     6     2    30    1 
     7     3    13    ar
     8     4     5    ar
     9     4     8    ar
    10     4    31    1 
    11     5    17    ar
    12     5    32    1 
    13     6    18    1 
    14     6    19    1 
    15     6    33    1 
    16     6    34    1 
    17     7    21    1 
    18     7    22    1 
    19     7    23    1 
    20     7    35    1 
    21     8     9    ar
    22     8    18    1 
    23     9    16    ar
    24    10    11    1 
    25    10    26    1 
    26    10    27    1 
    27    10    28    1 
    28    11    24    1 
    29    11    26    1 
    30    11    36    1 
    31    12    13    1 
    32    12    37    1 
    33    12    38    1 
    34    12    39    1 
    35    13    14    ar
    36    14    15    ar
    37    14    40    1 
    38    16    17    ar
    39    18    22    1 
    40    19    20    1 
    41    19    23    1 
    42    19    41    1 
    43    20    21    1 
    44    20    42    1 
    45    20    43    1 
    46    21    44    1 
    47    21    45    1 
    48    22    46    1 
    49    22    47    1 
    50    23    24    am
    51    24    25    2 
    52    26    48    1 
    53    26    49    1 
@<TRIPOS>MOLECULE
Molecule PRUEBA3_ligands_10.mol2
    10     0
SMALL
NO_CHARGES
@<TRIPOS>ATOM
      1 DON       -22.7648   62.8772  -27.3801 HB    0     HB      0.0000
      2 ACC       -19.2137   62.5900  -27.9880 HB    1     HB      0.0000
      3 ACC       -23.6695   60.7085  -27.1188 HB    2     HB      0.0000
      4 ACC       -25.0570   62.7458  -26.8955 HB    3     HB      0.0000
      5 ACC       -22.8400   54.0124  -26.8865 HB    4     HB      0.0000
      6 CAT       -19.5638   61.2873  -27.7972 CHG   5     CHG    -0.1774
      7 AR        -20.3081   62.1417  -27.7562 AR    6     AR      0.0000
      8 AR        -24.9177   61.3299  -26.8533 AR    7     AR      0.0000
      9 HYD       -23.9815   56.9028  -24.4799 HYD   8     HYD     0.0000
     10 HYD       -18.5562   60.2203  -27.8490 HYD   9     HYD     0.0000
@<TRIPOS>BOND
@<TRIPOS>MOLECULE
PRUEBA3_ligands_1.mol2
    42    45
SMALL
NO_CHARGES
@<TRIPOS>ATOM
      1 C1        -18.5003   59.1128  -27.3957 C.3   1     0NH1   -0.0458
      2 C2        -19.8884   59.3282  -26.6927 C.3   1     0NH1    0.0318
      3 C3        -20.9149   58.3862  -27.3278 C.3   1     0NH1   -0.0198
      4 C4        -20.7133   56.9026  -26.9855 C.3   1     0NH1    0.0157
      5 N5        -20.2534   56.6632  -25.6105 N.3   1     0NH1   -0.2402
      6 C6        -19.4551   57.6618  -24.8529 C.3   1     0NH1    0.0157
      7 C7        -19.7978   59.1155  -25.1937 C.3   1     0NH1   -0.0198
      8 S8        -20.4973   55.1715  -24.9636 S.O2  1     0NH1    0.0000
      9 O9        -20.6364   55.3318  -23.5528 O.2   1     0NH1   -1.0000
     10 O10       -21.5670   54.5473  -25.6844 O.2   1     0NH1   -1.0000
     11 C11       -18.9679   54.2504  -25.3373 C.3   1     0NH1   -0.0681
     12 N12       -20.3543   60.7070  -26.9894 N.ar  1     0NH1   -0.2265
     13 C13       -19.5191   61.7955  -27.1418 C.ar  1     0NH1    0.0778
     14 N14       -20.2477   62.8599  -27.3145 N.ar  1     0NH1   -0.2403
     15 C15       -21.5719   62.5543  -27.2787 C.ar  1     0NH1    0.1020
     16 C16       -21.6552   61.1668  -27.0608 C.ar  1     0NH1    0.0612
     17 C17       -22.9420   60.5949  -26.9693 C.ar  1     0NH1    0.0332
     18 C18       -23.4568   59.2270  -26.7660 C.ar  1     0NH1   -0.0391
     19 C19       -24.7834   59.3228  -26.7481 C.ar  1     0NH1   -0.0154
     20 N20       -25.1554   60.6298  -26.9250 N.ar  1     0NH1   -0.2489
     21 C22       -24.0664   61.4311  -27.0746 C.ar  1     0NH1    0.1193
     22 N23       -23.9465   62.7503  -27.2757 N.ar  1     0NH1   -0.2406
     23 C24       -22.7442   63.3078  -27.4031 C.ar  1     0NH1    0.0563
     24 H11       -17.7528   59.7988  -26.9332 H     1     0NH1    0.0248
     25 H12       -18.5604   59.2325  -28.5025 H     1     0NH1    0.0248
     26 H13       -18.1743   58.0674  -27.1862 H     1     0NH1    0.0248
     27 H31       -20.9421   58.5297  -28.4332 H     1     0NH1    0.0296
     28 H32       -21.9161   58.6798  -26.9347 H     1     0NH1    0.0296
     29 H41       -20.0236   56.4221  -27.7181 H     1     0NH1    0.0441
     30 H42       -21.7047   56.4035  -27.0918 H     1     0NH1    0.0441
     31 H61       -18.3641   57.4743  -24.9854 H     1     0NH1    0.0441
     32 H62       -19.6851   57.5146  -23.7718 H     1     0NH1    0.0441
     33 H71       -20.7289   59.4470  -24.6776 H     1     0NH1    0.0296
     34 H72       -18.9634   59.7518  -24.8167 H     1     0NH1    0.0296
     35 H111      -19.1334   53.2388  -24.8985 H     1     0NH1    0.0227
     36 H112      -18.0376   54.7524  -24.9827 H     1     0NH1    0.0227
     37 H113      -18.8968   54.1374  -26.4442 H     1     0NH1    0.0227
     38 H13       -18.4166   61.7677  -27.1206 H     1     0NH1    0.0966
     39 H18       -22.8595   58.3068  -26.6514 H     1     0NH1    0.0635
     40 H19       -25.4790   58.4778  -26.6115 H     1     0NH1    0.0746
     41 H20       -26.1209   60.9582  -26.9421 H     1     0NH1    0.1345
     42 H24       -22.6706   64.3885  -27.6115 H     1     0NH1    0.0852
@<TRIPOS>BOND
     1     1     2    1 
     2     1    24    1 
     3     1    25    1 
     4     1    26    1 
     5     2     3    1 
     6     2     7    1 
     7     2    12    1 
     8     3     4    1 
     9     3    27    1 
    10     3    28    1 
    11     4     5    1 
    12     4    29    1 
    13     4    30    1 
    14     5     6    1 
    15     5     8    1 
    16     6     7    1 
    17     6    31    1 
    18     6    32    1 
    19     7    33    1 
    20     7    34    1 
    21     8     9    2 
    22     8    10    2 
    23     8    11    1 
    24    11    35    1 
    25    11    36    1 
    26    11    37    1 
    27    12    13    ar
    28    12    16    ar
    29    13    14    ar
    30    13    38    1 
    31    14    15    ar
    32    15    16    ar
    33    15    23    ar
    34    16    17    ar
    35    17    18    ar
    36    17    21    ar
    37    18    19    ar
    38    18    39    1 
    39    19    20    ar
    40    19    40    1 
    41    20    21    ar
    42    20    41    1 
    43    21    22    ar
    44    22    23    ar
    45    23    42    1 
@<TRIPOS>MOLECULE
Molecule PRUEBA3_ligands_1.mol2
    13     0
SMALL
NO_CHARGES
@<TRIPOS>ATOM
      1 DON       -25.1554   60.6298  -26.9250 HB    0     HB      0.0000
      2 ACC       -20.2534   56.6632  -25.6105 HB    1     HB      0.0000
      3 ACC       -20.6364   55.3318  -23.5528 HB    2     HB      0.0000
      4 ACC       -21.5670   54.5473  -25.6844 HB    3     HB      0.0000
      5 ACC       -20.2477   62.8599  -27.3145 HB    4     HB      0.0000
      6 ACC       -23.9465   62.7503  -27.2757 HB    5     HB      0.0000
      7 CAT       -20.3543   60.7070  -26.9894 CHG   6     CHG    -0.2265
      8 CAT       -25.1554   60.6298  -26.9250 CHG   7     CHG    -0.2489
      9 AR        -20.6696   61.8167  -27.1570 AR    8     AR      0.0000
     10 AR        -22.8210   61.9675  -27.1770 AR    9     AR      0.0000
     11 AR        -24.0808   60.2411  -26.8966 AR    10    AR      0.0000
     12 HYD       -18.5003   59.1128  -27.3957 HYD   11    HYD     0.0000
     13 HYD       -18.9679   54.2504  -25.3373 HYD   12    HYD     0.0000
@<TRIPOS>BOND
@<TRIPOS>MOLECULE
PRUEBA3_ligands_2.mol2
    36    39
SMALL
NO_CHARGES
@<TRIPOS>ATOM
      1 C1        -27.1984   61.0286  -26.5955 C.3   1     JAK1   -0.0113
      2 C2        -25.7791   61.4822  -26.9045 C.ar  1     JAK1    0.0882
      3 N3        -25.4707   62.7015  -27.1864 N.ar  1     JAK1   -0.2371
      4 C4        -24.1524   62.8069  -27.4179 C.ar  1     JAK1    0.1023
      5 C5        -23.3519   63.8974  -27.7485 C.ar  1     JAK1    0.0564
      6 N6        -22.0719   63.7365  -27.9346 N.ar  1     JAK1   -0.2406
      7 C7        -21.4576   62.5576  -27.8094 C.ar  1     JAK1    0.1193
      8 C8        -22.2005   61.4062  -27.4719 C.ar  1     JAK1    0.0332
      9 C9        -23.5956   61.5186  -27.2705 C.ar  1     JAK1    0.0612
     10 N10       -24.6604   60.6985  -26.9320 N.ar  1     JAK1   -0.2268
     11 C11       -24.6048   59.2897  -26.5900 C.3   1     JAK1    0.0235
     12 C12       -25.8021   58.3782  -26.8670 C.3   1     JAK1   -0.0239
     13 C13       -25.4970   56.9803  -26.3290 C.3   1     JAK1   -0.0027
     14 N14       -24.2644   56.4406  -26.9293 N.3   1     JAK1   -0.3159
     15 C15       -23.1031   57.3136  -26.7424 C.3   1     JAK1   -0.0027
     16 C16       -23.3742   58.7119  -27.3030 C.3   1     JAK1   -0.0239
     17 C17       -21.2116   60.3249  -27.4231 C.ar  1     JAK1   -0.0391
     18 C18       -20.0088   60.8492  -27.7181 C.ar  1     JAK1   -0.0154
     19 N19       -20.1315   62.1866  -27.9550 N.ar  1     JAK1   -0.2489
     20 H11       -27.4653   59.9739  -26.3517 H     1     JAK1    0.0303
     21 H12       -27.8407   61.3436  -27.4509 H     1     JAK1    0.0303
     22 H13       -27.5309   61.6378  -25.7228 H     1     JAK1    0.0303
     23 H5        -23.8018   64.8990  -27.8532 H     1     JAK1    0.0852
     24 H11       -24.4070   59.2789  -25.4927 H     1     JAK1    0.0471
     25 H121      -26.0862   58.3659  -27.9451 H     1     JAK1    0.0293
     26 H122      -26.6707   58.7784  -26.2936 H     1     JAK1    0.0293
     27 H131      -26.3599   56.2883  -26.4695 H     1     JAK1    0.0424
     28 H132      -25.3204   57.0757  -25.2322 H     1     JAK1    0.0424
     29 H14       -24.4042   56.2285  -27.9172 H     1     JAK1    0.1219
     30 H151      -22.1786   56.8676  -27.1777 H     1     JAK1    0.0424
     31 H152      -22.9381   57.4198  -25.6448 H     1     JAK1    0.0424
     32 H161      -22.4852   59.3812  -27.2337 H     1     JAK1    0.0293
     33 H162      -23.6302   58.5999  -28.3824 H     1     JAK1    0.0293
     34 H17       -21.4178   59.2676  -27.1863 H     1     JAK1    0.0635
     35 H18       -19.0638   60.2820  -27.7619 H     1     JAK1    0.0746
     36 H19       -19.3666   62.8150  -28.2008 H     1     JAK1    0.1345
@<TRIPOS>BOND
     1     1     2    1 
     2     1    20    1 
     3     1    21    1 
     4     1    22    1 
     5     2     3    ar
     6     2    10    ar
     7     3     4    ar
     8     4     5    ar
     9     4     9    ar
    10     5     6    ar
    11     5    23    1 
    12     6     7    ar
    13     7     8    ar
    14     7    19    ar
    15     8     9    ar
    16     8    17    ar
    17     9    10    ar
    18    10    11    1 
    19    11    12    1 
    20    11    16    1 
    21    11    24    1 
    22    12    13    1 
    23    12    25    1 
    24    12    26    1 
    25    13    14    1 
    26    13    27    1 
    27    13    28    1 
    28    14    15    1 
    29    14    29    1 
    30    15    16    1 
    31    15    30    1 
    32    15    31    1 
    33    16    32    1 
    34    16    33    1 
    35    17    18    ar
    36    17    34    1 
    37    18    19    ar
    38    18    35    1 
    39    19    36    1 
@<TRIPOS>MOLECULE
Molecule PRUEBA3_ligands_2.mol2
    11     0
SMALL
NO_CHARGES
@<TRIPOS>ATOM
      1 DON       -24.2644   56.4406  -26.9293 HB    0     HB      0.0000
      2 DON       -20.1315   62.1866  -27.9550 HB    1     HB      0.0000
      3 ACC       -25.4707   62.7015  -27.1864 HB    2     HB      0.0000
      4 ACC       -22.0719   63.7365  -27.9346 HB    3     HB      0.0000
      5 ACC       -24.2644   56.4406  -26.9293 HB    4     HB      0.0000
      6 CAT       -24.9540   60.6725  -26.9811 CHG   5     CHG    -0.2268
      7 CAT       -20.1315   62.1866  -27.9550 CHG   6     CHG    -0.2489
      8 AR        -24.7316   61.8416  -27.1423 AR    7     AR      0.0000
      9 AR        -22.8050   62.6539  -27.6088 AR    8     AR      0.0000
     10 AR        -21.0020   61.4649  -27.6755 AR    9     AR      0.0000
     11 HYD       -27.1984   61.0286  -26.5955 HYD   10    HYD     0.0000
@<TRIPOS>BOND
@<TRIPOS>MOLECULE
PRUEBA3_ligands_3.mol2
    43    45
SMALL
NO_CHARGES
@<TRIPOS>ATOM
      1 C1        -24.3644   58.0953  -26.2417 C.3   1     MI1     0.0319
      2 C2        -25.3286   57.3126  -27.1107 C.3   1     MI1     0.0225
      3 C4        -25.6037   55.4663  -25.3974 C.3   1     MI1     0.0066
      4 C5        -24.4454   56.0828  -24.6032 C.3   1     MI1    -0.0357
      5 C6        -23.5476   57.0034  -25.4590 C.3   1     MI1    -0.0255
      6 N3        -26.2017   56.5823  -26.1753 N.am  1     MI1    -0.2421
      7 O21       -27.9966   57.7664  -26.7573 O.2   1     MI1    -0.2782
      8 C20       -27.4831   56.8712  -26.0953 C.2   1     MI1     0.2172
      9 C22       -28.3159   56.0817  -25.1089 C.3   1     MI1     0.1081
     10 C23       -29.6597   56.6792  -25.0557 C.1   1     MI1     0.0716
     11 N24       -30.7352   57.1085  -24.9819 N.1   1     MI1    -0.1961
     12 C7        -22.5709   56.0931  -26.2444 C.3   1     MI1    -0.0609
     13 N8        -23.3976   58.9233  -27.0543 N.pl3 1     MI1    -0.2567
     14 C9        -22.2369   58.3409  -27.7338 C.3   1     MI1    -0.0063
     15 C10       -23.6197   60.0396  -27.1292 C.ar  1     MI1     0.1213
     16 C15       -22.5273   60.8861  -27.3947 C.ar  1     MI1     0.0495
     17 C16       -21.1214   60.6479  -27.6837 C.ar  1     MI1    -0.0377
     18 C11       -20.6029   61.9180  -27.8419 C.ar  1     MI1    -0.0154
     19 N12       -21.5827   62.8655  -27.6440 N.ar  1     MI1    -0.2488
     20 C14       -22.7509   62.2502  -27.3844 C.ar  1     MI1     0.1224
     21 N17       -23.9383   62.8361  -27.1532 N.ar  1     MI1    -0.2232
     22 C18       -24.9647   61.9770  -26.9115 C.ar  1     MI1     0.1196
     23 N19       -24.8452   60.6168  -26.8804 N.ar  1     MI1    -0.2233
     24 H1        -25.4093   58.4474  -26.4071 H     1     MI1     0.0482
     25 H21       -24.8254   56.6562  -27.8584 H     1     MI1     0.0447
     26 H22       -25.9593   58.0446  -27.6672 H     1     MI1     0.0447
     27 H41       -26.3400   54.9213  -24.7616 H     1     MI1     0.0431
     28 H42       -25.1718   54.7371  -26.1220 H     1     MI1     0.0431
     29 H51       -23.8406   55.2910  -24.1028 H     1     MI1     0.0281
     30 H52       -24.8941   56.7127  -23.8001 H     1     MI1     0.0281
     31 H6        -22.9154   57.5652  -24.7325 H     1     MI1     0.0314
     32 H221      -27.8379   56.0103  -24.1042 H     1     MI1     0.0510
     33 H222      -28.4216   55.0459  -25.5080 H     1     MI1     0.0510
     34 H71       -21.9917   55.3188  -25.6893 H     1     MI1     0.0233
     35 H72       -21.8591   56.7356  -26.8132 H     1     MI1     0.0233
     36 H73       -23.1829   55.5497  -27.0016 H     1     MI1     0.0233
     37 H91       -21.5231   58.9523  -28.3338 H     1     MI1     0.0395
     38 H92       -22.6085   57.5189  -28.3889 H     1     MI1     0.0395
     39 H93       -21.6289   57.8499  -26.9385 H     1     MI1     0.0395
     40 H16       -20.5946   59.6818  -27.7588 H     1     MI1     0.0635
     41 H11       -19.5522   62.1421  -28.0915 H     1     MI1     0.0746
     42 H12       -21.4445   63.8752  -27.6875 H     1     MI1     0.1345
     43 H18       -25.9629   62.4088  -26.7279 H     1     MI1     0.1048
@<TRIPOS>BOND
     1     1     2    1 
     2     1     5    1 
     3     1    13    1 
     4     1    24    1 
     5     2     6    1 
     6     2    25    1 
     7     2    26    1 
     8     3     4    1 
     9     3     6    1 
    10     3    27    1 
    11     3    28    1 
    12     4     5    1 
    13     4    29    1 
    14     4    30    1 
    15     5    12    1 
    16     5    31    1 
    17     6     8    am
    18     7     8    2 
    19     8     9    1 
    20     9    10    1 
    21     9    32    1 
    22     9    33    1 
    23    10    11    1 
    24    12    34    1 
    25    12    35    1 
    26    12    36    1 
    27    13    14    1 
    28    13    15    1 
    29    14    37    1 
    30    14    38    1 
    31    14    39    1 
    32    15    16    ar
    33    15    23    ar
    34    16    17    ar
    35    16    20    ar
    36    17    18    ar
    37    17    40    1 
    38    18    19    ar
    39    18    41    1 
    40    19    20    ar
    41    19    42    1 
    42    20    21    ar
    43    21    22    ar
    44    22    23    ar
    45    22    43    1 
@<TRIPOS>MOLECULE
Molecule PRUEBA3_ligands_3.mol2
    12     0
SMALL
NO_CHARGES
@<TRIPOS>ATOM
      1 DON       -21.5827   62.8655  -27.6440 HB    0     HB      0.0000
      2 ACC       -27.9966   57.7664  -26.7573 HB    1     HB      0.0000
      3 ACC       -30.7352   57.1085  -24.9819 HB    2     HB      0.0000
      4 ACC       -23.9383   62.8361  -27.1532 HB    3     HB      0.0000
      5 ACC       -24.8452   60.6168  -26.8804 HB    4     HB      0.0000
      6 CAT       -21.5827   62.8655  -27.6440 CHG   5     CHG    -0.2488
      7 AR        -23.7743   61.4343  -27.1422 AR    6     AR      0.0000
      8 AR        -21.7170   61.7136  -27.5898 AR    7     AR      0.0000
      9 HYD       -23.9965   56.5431  -25.0311 HYD   8     HYD     0.0000
     10 HYD       -23.0593   56.5482  -25.8517 HYD   9     HYD     0.0000
     11 HYD       -22.5709   56.0931  -26.2444 HYD   10    HYD     0.0000
     12 HYD       -22.2369   58.3409  -27.7338 HYD   11    HYD     0.0000
@<TRIPOS>BOND
@<TRIPOS>MOLECULE
PRUEBA3_ligands_4.mol2
    52    55
SMALL
NO_CHARGES
@<TRIPOS>ATOM
      1 C1        -18.2797   59.0473  -27.6971 C.3   1     5       0.0431
      2 C3        -18.8958   61.3559  -27.9168 C.ar  1     5       0.1065
      3 C7        -19.3902   63.7208  -28.0773 C.ar  1     5       0.0068
      4 C8        -18.4683   62.6854  -28.1277 C.ar  1     5       0.1084
      5 C10       -16.5922   64.1597  -28.3680 C.3   1     5       0.0431
      6 C12       -22.2656   62.0067  -27.5020 C.ar  1     5       0.1229
      7 C14       -24.3298   62.6312  -27.0580 C.ar  1     5       0.1392
      8 C15       -24.2165   61.2507  -27.0214 C.ar  1     5       0.1216
      9 C19       -26.5389   62.6217  -26.5273 C.ar  1     5       0.0494
     10 C22       -23.9003   58.4780  -26.7113 C.3   1     5       0.0036
     11 C24       -22.6940   56.9477  -28.1449 C.3   1     5      -0.0364
     12 N26       -22.4630   54.5465  -27.5303 N.3   1     5      -0.3160
     13 C27       -23.5421   54.7180  -26.5359 C.3   1     5      -0.0038
     14 O2        -17.9128   60.4039  -27.9773 O.3   1     5      -0.3453
     15 C4        -20.2340   61.0938  -27.6610 C.ar  1     5      -0.0162
     16 C5        -21.1676   62.1294  -27.6025 C.ar  1     5       0.0496
     17 C6        -20.7066   63.4209  -27.8187 C.ar  1     5       0.1361
     18 O9        -17.1289   62.8345  -28.3689 O.3   1     5      -0.3453
     19 F11       -21.5930   64.4351  -27.7822 F     1     5      -0.2047
     20 N13       -23.0721   63.1030  -27.3718 N.ar  1     5      -0.2249
     21 N16       -22.9179   60.8702  -27.3000 N.ar  1     5      -0.2302
     22 C17       -25.3732   60.5147  -26.7175 C.ar  1     5       0.0644
     23 C18       -26.5406   61.2373  -26.4651 C.ar  1     5       0.0789
     24 N20       -25.4464   63.3383  -26.8233 N.ar  1     5      -0.2397
     25 CL        -28.0027   60.3887  -26.0677 Cl    1     5      -0.0803
     26 N21       -25.1670   58.9380  -26.4431 N.pl3 1     5      -0.2848
     27 C23       -23.8836   57.0498  -27.1941 C.3   1     5      -0.0258
     28 C25       -22.5222   55.5284  -28.6280 C.3   1     5      -0.0038
     29 C28       -23.6686   56.1199  -26.0093 C.3   1     5      -0.0364
     30 H11       -17.4795   58.2722  -27.7463 H     1     5       0.0529
     31 H12       -19.1210   58.7491  -28.3652 H     1     5       0.0529
     32 H13       -18.6770   59.0316  -26.6554 H     1     5       0.0529
     33 H7        -19.0731   64.7644  -28.2414 H     1     5       0.0673
     34 H101      -15.5013   64.2811  -28.5644 H     1     5       0.0529
     35 H102      -16.8481   64.6576  -27.4036 H     1     5       0.0529
     36 H103      -17.1260   64.7215  -29.1695 H     1     5       0.0529
     37 H19       -27.4808   63.1585  -26.3237 H     1     5       0.0845
     38 H221      -22.8722   58.8982  -26.8095 H     1     5       0.0430
     39 H222      -24.5425   59.0450  -27.4249 H     1     5       0.0430
     40 H241      -21.7596   57.3440  -27.6833 H     1     5       0.0281
     41 H242      -22.9217   57.5792  -29.0351 H     1     5       0.0281
     42 H26       -22.4545   53.5942  -27.8956 H     1     5       0.1219
     43 H271      -23.4207   53.9936  -25.6970 H     1     5       0.0424
     44 H272      -24.5019   54.4712  -27.0469 H     1     5       0.0424
     45 H4        -20.5642   60.0535  -27.5016 H     1     5       0.0652
     46 H13       -22.7975   64.0789  -27.4846 H     1     5       0.1365
     47 H21       -25.9372   59.0560  -26.9978 H     1     5       0.1278
     48 H23       -24.8332   56.8013  -27.7230 H     1     5       0.0314
     49 H251      -21.6289   55.4393  -29.2893 H     1     5       0.0424
     50 H252      -23.4163   55.2794  -29.2458 H     1     5       0.0424
     51 H281      -22.8026   56.4222  -25.3754 H     1     5       0.0281
     52 H282      -24.5843   56.1623  -25.3746 H     1     5       0.0281
@<TRIPOS>BOND
     1     1    14    1 
     2     1    30    1 
     3     1    31    1 
     4     1    32    1 
     5     2     4    ar
     6     2    14    1 
     7     2    15    ar
     8     3     4    ar
     9     3    17    ar
    10     3    33    1 
    11     4    18    1 
    12     5    18    1 
    13     5    34    1 
    14     5    35    1 
    15     5    36    1 
    16     6    16    1 
    17     6    20    ar
    18     6    21    ar
    19     7     8    ar
    20     7    20    ar
    21     7    24    ar
    22     8    21    ar
    23     8    22    ar
    24     9    23    ar
    25     9    24    ar
    26     9    37    1 
    27    10    26    1 
    28    10    27    1 
    29    10    38    1 
    30    10    39    1 
    31    11    27    1 
    32    11    28    1 
    33    11    40    1 
    34    11    41    1 
    35    12    13    1 
    36    12    28    1 
    37    12    42    1 
    38    13    29    1 
    39    13    43    1 
    40    13    44    1 
    41    15    16    ar
    42    15    45    1 
    43    16    17    ar
    44    17    19    1 
    45    20    46    1 
    46    22    23    ar
    47    22    26    1 
    48    23    25    1 
    49    26    47    1 
    50    27    29    1 
    51    27    48    1 
    52    28    49    1 
    53    28    50    1 
    54    29    51    1 
    55    29    52    1 
@<TRIPOS>MOLECULE
Molecule PRUEBA3_ligands_4.mol2
    16     0
SMALL
NO_CHARGES
@<TRIPOS>ATOM
      1 DON       -22.4630   54.5465  -27.5303 HB    0     HB      0.0000
      2 DON       -23.0721   63.1030  -27.3718 HB    1     HB      0.0000
      3 DON       -25.1614   59.0943  -26.3366 HB    2     HB      0.0000
      4 ACC       -22.4630   54.5465  -27.5303 HB    3     HB      0.0000
      5 ACC       -17.9128   60.4039  -27.9773 HB    4     HB      0.0000
      6 ACC       -17.1289   62.8345  -28.3689 HB    5     HB      0.0000
      7 ACC       -22.9179   60.8702  -27.3000 HB    6     HB      0.0000
      8 ACC       -25.4464   63.3383  -26.8233 HB    7     HB      0.0000
      9 CAT       -23.0721   63.1030  -27.3718 CHG   8     CHG    -0.2249
     10 AR        -19.8104   62.4011  -27.8673 AR    9     AR      0.0000
     11 AR        -23.3604   61.9724  -27.2506 AR    10    AR      0.0000
     12 AR        -25.4076   61.9323  -26.7688 AR    11    AR      0.0000
     13 HYD       -23.2888   56.9987  -27.6695 HYD   12    HYD     0.0000
     14 HYD       -23.7761   56.5849  -26.6017 HYD   13    HYD     0.0000
     15 HYD       -18.2797   59.0473  -27.6971 HYD   14    HYD     0.0000
     16 HYD       -16.5922   64.1597  -28.3680 HYD   15    HYD     0.0000
@<TRIPOS>BOND
@<TRIPOS>MOLECULE
PRUEBA3_ligands_5.mol2
    56    60
SMALL
NO_CHARGES
@<TRIPOS>ATOM
      1 C7        -25.3733   54.3843  -29.1505 C.3   1     0NT1   -0.0279
      2 C2        -22.2679   55.1152  -31.1056 C.3   1     0NT1    0.0055
      3 C10       -23.4970   55.5532  -27.9628 C.2   1     0NT1    0.2205
      4 C6        -25.0288   52.9930  -29.7104 C.3   1     0NT1   -0.0383
      5 C1        -21.3700   54.1844  -31.9373 C.3   1     0NT1   -0.0497
      6 C3        -21.3108   56.1041  -30.4231 C.3   1     0NT1   -0.0497
      7 N4        -23.1091   54.3568  -30.1296 N.3   1     0NT1   -0.2893
      8 C5        -24.0103   53.3639  -30.8007 C.3   1     0NT1   -0.0001
      9 C8        -24.0613   55.2112  -29.3316 C.3   1     0NT1    0.0845
     10 O11       -22.5874   54.8417  -27.5370 O.2   1     0NT1   -0.2776
     11 N12       -23.9844   56.5851  -27.2036 N.am  1     0NT1   -0.2430
     12 C13       -25.3945   57.0216  -27.3301 C.3   1     0NT1    0.0077
     13 C14       -25.4595   58.5317  -27.6844 C.3   1     0NT1   -0.0233
     14 C15       -24.6111   59.3441  -26.6869 C.3   1     0NT1    0.0233
     15 C16       -23.1520   58.8343  -26.5695 C.3   1     0NT1   -0.0233
     16 C17       -23.1719   57.3342  -26.2026 C.3   1     0NT1    0.0077
     17 N18       -24.4213   60.6272  -26.7920 N.ar  1     0NT1   -0.2293
     18 C19       -25.5508   61.4130  -26.8687 C.ar  1     0NT1    0.0775
     19 N20       -25.2232   62.6545  -27.0841 N.ar  1     0NT1   -0.2403
     20 C21       -23.8732   62.7596  -27.1823 C.ar  1     0NT1    0.1020
     21 C22       -23.3431   61.4599  -26.9974 C.ar  1     0NT1    0.0610
     22 C23       -21.9493   61.2826  -27.0903 C.ar  1     0NT1    0.0331
     23 C24       -21.0483   60.1288  -26.9681 C.ar  1     0NT1   -0.0391
     24 C25       -19.8056   60.6013  -27.1646 C.ar  1     0NT1   -0.0154
     25 N26       -19.8448   61.9496  -27.4060 N.ar  1     0NT1   -0.2489
     26 C28       -21.1378   62.4117  -27.3539 C.ar  1     0NT1    0.1193
     27 N29       -21.6899   63.6280  -27.5178 N.ar  1     0NT1   -0.2406
     28 C30       -22.9975   63.8298  -27.4403 C.ar  1     0NT1    0.0563
     29 H71       -25.7634   54.3715  -28.1060 H     1     0NT1    0.0285
     30 H72       -26.1563   54.8340  -29.8046 H     1     0NT1    0.0285
     31 H2        -22.9376   55.6801  -31.7952 H     1     0NT1    0.0457
     32 H61       -25.8981   52.3842  -30.0524 H     1     0NT1    0.0278
     33 H62       -24.4949   52.4210  -28.9160 H     1     0NT1    0.0278
     34 H11       -22.0647   53.4666  -32.4326 H     1     0NT1    0.0245
     35 H12       -20.5635   53.6922  -31.3453 H     1     0NT1    0.0245
     36 H13       -20.8855   54.7969  -32.7332 H     1     0NT1    0.0245
     37 H31       -21.9619   56.7791  -29.8200 H     1     0NT1    0.0245
     38 H32       -20.6414   56.6432  -31.1333 H     1     0NT1    0.0245
     39 H33       -20.6683   55.5274  -29.7175 H     1     0NT1    0.0245
     40 H51       -24.4669   53.7274  -31.7509 H     1     0NT1    0.0427
     41 H52       -23.4084   52.4547  -31.0335 H     1     0NT1    0.0427
     42 H8        -24.2831   56.1496  -29.8915 H     1     0NT1    0.0555
     43 H131      -25.9879   56.7822  -26.4169 H     1     0NT1    0.0432
     44 H132      -25.8451   56.4579  -28.1801 H     1     0NT1    0.0432
     45 H141      -26.5094   58.9031  -27.7396 H     1     0NT1    0.0293
     46 H142      -25.0045   58.6596  -28.6942 H     1     0NT1    0.0293
     47 H15       -23.5089   58.8417  -27.2928 H     1     0NT1    0.0471
     48 H161      -22.5473   59.4386  -25.8537 H     1     0NT1    0.0293
     49 H162      -22.6794   58.9295  -27.5748 H     1     0NT1    0.0293
     50 H171      -22.1449   56.9139  -26.0953 H     1     0NT1    0.0432
     51 H172      -23.6805   57.2361  -25.2152 H     1     0NT1    0.0432
     52 H19       -26.5846   61.0431  -26.7629 H     1     0NT1    0.0966
     53 H24       -21.3343   59.0846  -26.7574 H     1     0NT1    0.0635
     54 H25       -18.8867   59.9918  -27.1358 H     1     0NT1    0.0746
     55 H26       -19.0278   62.5295  -27.5977 H     1     0NT1    0.1345
     56 H30       -23.4028   64.8461  -27.5793 H     1     0NT1    0.0852
@<TRIPOS>BOND
     1     1     4    1 
     2     1     9    1 
     3     1    29    1 
     4     1    30    1 
     5     2     5    1 
     6     2     6    1 
     7     2     7    1 
     8     2    31    1 
     9     3     9    1 
    10     3    10    2 
    11     3    11    am
    12     4     8    1 
    13     4    32    1 
    14     4    33    1 
    15     5    34    1 
    16     5    35    1 
    17     5    36    1 
    18     6    37    1 
    19     6    38    1 
    20     6    39    1 
    21     7     8    1 
    22     7     9    1 
    23     8    40    1 
    24     8    41    1 
    25     9    42    1 
    26    11    12    1 
    27    11    16    1 
    28    12    13    1 
    29    12    43    1 
    30    12    44    1 
    31    13    14    1 
    32    13    45    1 
    33    13    46    1 
    34    14    15    1 
    35    14    17    1 
    36    14    47    1 
    37    15    16    1 
    38    15    48    1 
    39    15    49    1 
    40    16    50    1 
    41    16    51    1 
    42    17    18    ar
    43    17    21    ar
    44    18    19    ar
    45    18    52    1 
    46    19    20    ar
    47    20    21    ar
    48    20    28    ar
    49    21    22    ar
    50    22    23    ar
    51    22    26    ar
    52    23    24    ar
    53    23    53    1 
    54    24    25    ar
    55    24    54    1 
    56    25    26    ar
    57    25    55    1 
    58    26    27    ar
    59    27    28    ar
    60    28    56    1 
@<TRIPOS>MOLECULE
Molecule PRUEBA3_ligands_5.mol2
    13     0
SMALL
NO_CHARGES
@<TRIPOS>ATOM
      1 DON       -19.8448   61.9496  -27.4060 HB    0     HB      0.0000
      2 ACC       -23.1091   54.3568  -30.1296 HB    1     HB      0.0000
      3 ACC       -22.5874   54.8417  -27.5370 HB    2     HB      0.0000
      4 ACC       -25.2232   62.6545  -27.0841 HB    3     HB      0.0000
      5 ACC       -21.6899   63.6280  -27.5178 HB    4     HB      0.0000
      6 CAT       -24.4213   60.6272  -26.7920 CHG   5     CHG    -0.2293
      7 CAT       -19.8448   61.9496  -27.4060 CHG   6     CHG    -0.2489
      8 AR        -24.4823   61.7828  -26.9849 AR    7     AR      0.0000
      9 AR        -22.4985   62.5619  -27.2637 AR    8     AR      0.0000
     10 AR        -20.7572   61.2748  -27.1966 AR    9     AR      0.0000
     11 HYD       -25.2010   53.6887  -29.4304 HYD   10    HYD     0.0000
     12 HYD       -21.3700   54.1844  -31.9373 HYD   11    HYD     0.0000
     13 HYD       -21.3108   56.1041  -30.4231 HYD   12    HYD     0.0000
@<TRIPOS>BOND
@<TRIPOS>MOLECULE
PRUEBA3_ligands_6.mol2
    46    50
SMALL
NO_CHARGES
@<TRIPOS>ATOM
      1 C4        -25.0828   56.9195  -26.5771 C.3   1     0UJ1    0.0638
      2 C14       -22.3054   56.6843  -28.2384 C.3   1     0UJ1   -0.0335
      3 C5        -24.5882   58.3516  -26.7215 C.ar  1     0UJ1    0.1066
      4 C11       -22.8244   55.6653  -26.0864 C.3   1     0UJ1   -0.0459
      5 C7        -22.2076   57.7416  -27.1098 C.3   1     0UJ1    0.0243
      6 C9        -21.9359   56.9286  -25.7971 C.3   1     0UJ1   -0.0244
      7 C12       -22.1270   55.3340  -27.4587 C.3   1     0UJ1   -0.0393
      8 N3        -24.0420   55.9765  -26.1271 N.3   1     0UJ1   -0.2494
      9 C1        -24.7482   53.7216  -27.6315 C.3   1     0UJ1   -0.0681
     10 S2        -23.4002   54.8485  -27.1817 S.O2  1     0UJ1    0.0000
     11 N6        -23.2931   58.7385  -26.9728 N.ar  1     0UJ1   -0.2253
     12 C15       -20.4704   56.3803  -25.9264 C.3   1     0UJ1   -0.0485
     13 C16       -20.6144   55.2555  -27.0390 C.3   1     0UJ1   -0.0499
     14 C17       -23.2806   60.1301  -27.0737 C.ar  1     0UJ1    0.0612
     15 C18       -22.3519   61.1853  -27.3222 C.ar  1     0UJ1    0.0332
     16 C19       -20.9194   61.2830  -27.6195 C.ar  1     0UJ1   -0.0391
     17 C20       -20.6100   62.5833  -27.7946 C.ar  1     0UJ1   -0.0154
     18 N21       -21.7371   63.3479  -27.6178 N.ar  1     0UJ1   -0.2489
     19 C23       -22.8091   62.5327  -27.3277 C.ar  1     0UJ1    0.1193
     20 N24       -24.0933   62.8148  -27.0949 N.ar  1     0UJ1   -0.2406
     21 C25       -24.9867   61.8785  -26.8778 C.ar  1     0UJ1    0.0564
     22 C26       -24.6269   60.5172  -26.8637 C.ar  1     0UJ1    0.1023
     23 N27       -25.3448   59.3973  -26.6578 N.ar  1     0UJ1   -0.2355
     24 O28       -22.4365   54.1864  -26.3791 O.2   1     0UJ1   -1.0000
     25 O29       -22.9971   55.5980  -28.3179 O.2   1     0UJ1   -1.0000
     26 H41       -25.5500   56.5668  -27.5261 H     1     0UJ1    0.0513
     27 H42       -25.8815   56.9240  -25.7991 H     1     0UJ1    0.0513
     28 H141      -21.5938   56.8344  -29.0835 H     1     0UJ1    0.0283
     29 H142      -23.3415   56.7121  -28.6494 H     1     0UJ1    0.0283
     30 H111      -23.9324   55.7900  -26.0776 H     1     0UJ1    0.0271
     31 H112      -22.5541   54.8699  -25.3534 H     1     0UJ1    0.0271
     32 H7        -22.4955   56.8806  -26.4625 H     1     0UJ1    0.0473
     33 H9        -22.1634   57.4654  -24.8467 H     1     0UJ1    0.0316
     34 H12       -22.5194   54.4311  -27.9821 H     1     0UJ1    0.0301
     35 H3        -23.7105   56.0126  -25.1633 H     1     0UJ1    0.1410
     36 H11       -24.3202   52.9696  -28.3347 H     1     0UJ1    0.0227
     37 H12       -25.6415   54.2477  -28.0419 H     1     0UJ1    0.0227
     38 H13       -25.0646   53.1830  -26.7079 H     1     0UJ1    0.0227
     39 H151      -20.0146   56.0350  -24.9691 H     1     0UJ1    0.0269
     40 H152      -19.8313   57.1954  -26.3394 H     1     0UJ1    0.0269
     41 H161      -19.8965   55.3528  -27.8865 H     1     0UJ1    0.0268
     42 H162      -20.4424   54.2666  -26.5535 H     1     0UJ1    0.0268
     43 H19       -20.2151   60.4369  -27.6883 H     1     0UJ1    0.0635
     44 H20       -19.6079   62.9724  -28.0413 H     1     0UJ1    0.0746
     45 H21       -21.7747   64.3646  -27.6903 H     1     0UJ1    0.1345
     46 H25       -26.0381   62.1628  -26.7031 H     1     0UJ1    0.0852
@<TRIPOS>BOND
     1     1     3    1 
     2     1     8    1 
     3     1    26    1 
     4     1    27    1 
     5     2     5    1 
     6     2     7    1 
     7     2    28    1 
     8     2    29    1 
     9     3    11    ar
    10     3    23    ar
    11     4     6    1 
    12     4     7    1 
    13     4    30    1 
    14     4    31    1 
    15     5     6    1 
    16     5    11    1 
    17     5    32    1 
    18     6    12    1 
    19     6    33    1 
    20     7    13    1 
    21     7    34    1 
    22     8    10    1 
    23     8    35    1 
    24     9    10    1 
    25     9    36    1 
    26     9    37    1 
    27     9    38    1 
    28    10    24    2 
    29    10    25    2 
    30    11    14    ar
    31    12    13    1 
    32    12    39    1 
    33    12    40    1 
    34    13    41    1 
    35    13    42    1 
    36    14    15    ar
    37    14    22    ar
    38    15    16    ar
    39    15    19    ar
    40    16    17    ar
    41    16    43    1 
    42    17    18    ar
    43    17    44    1 
    44    18    19    ar
    45    18    45    1 
    46    19    20    ar
    47    20    21    ar
    48    21    22    ar
    49    21    46    1 
    50    22    23    ar
@<TRIPOS>MOLECULE
Molecule PRUEBA3_ligands_6.mol2
    19     0
SMALL
NO_CHARGES
@<TRIPOS>ATOM
      1 DON       -24.0420   55.9765  -26.1271 HB    0     HB      0.0000
      2 DON       -21.7371   63.3479  -27.6178 HB    1     HB      0.0000
      3 ACC       -24.0420   55.9765  -26.1271 HB    2     HB      0.0000
      4 ACC       -24.0933   62.8148  -27.0949 HB    3     HB      0.0000
      5 ACC       -25.3448   59.3973  -26.6578 HB    4     HB      0.0000
      6 ACC       -22.4365   54.1864  -26.3791 HB    5     HB      0.0000
      7 ACC       -22.9971   55.5980  -28.3179 HB    6     HB      0.0000
      8 CAT       -23.2931   58.7385  -26.9728 CHG   7     CHG    -0.2253
      9 CAT       -21.7371   63.3479  -27.6178 CHG   8     CHG    -0.2489
     10 AR        -24.2267   59.4269  -26.8579 AR    9     AR      0.0000
     11 AR        -23.6914   61.5098  -27.0933 AR    10    AR      0.0000
     12 AR        -21.6855   62.1864  -27.5364 AR    11    AR      0.0000
     13 HYD       -22.2162   56.0091  -27.8486 HYD   12    HYD     0.0000
     14 HYD       -22.3801   56.2970  -25.9418 HYD   13    HYD     0.0000
     15 HYD       -22.4757   55.4997  -26.7726 HYD   14    HYD     0.0000
     16 HYD       -21.2031   56.6544  -25.8617 HYD   15    HYD     0.0000
     17 HYD       -21.3707   55.2948  -27.2488 HYD   16    HYD     0.0000
     18 HYD       -20.5424   55.8179  -26.4827 HYD   17    HYD     0.0000
     19 HYD       -24.7482   53.7216  -27.6315 HYD   18    HYD     0.0000
@<TRIPOS>BOND
@<TRIPOS>MOLECULE
PRUEBA3_ligands_7.mol2
    34    36
SMALL
NO_CHARGES
@<TRIPOS>ATOM
      1 C1        -21.1713   60.2984  -27.4843 C.2   1     1      -0.0385
      2 C2        -20.1451   61.1452  -27.7381 C.2   1     1      -0.0139
      3 N3        -20.3249   62.5072  -27.7927 N.am  1     1      -0.2296
      4 C5        -21.5383   63.0969  -27.6198 C.2   1     1       0.2543
      5 O6        -21.6649   64.3113  -27.6679 O.2   1     1      -0.2720
      6 C7        -22.7091   62.2573  -27.3533 C.ar  1     1       0.1342
      7 C8        -22.5159   60.8475  -27.2771 C.ar  1     1       0.0426
      8 C9        -23.6453   60.0396  -27.0006 C.ar  1     1       0.1180
      9 N10       -24.8225   60.6531  -26.8277 N.ar  1     1      -0.2236
     10 C11       -24.9460   61.9748  -26.8969 C.ar  1     1       0.1186
     11 N12       -23.9261   62.7661  -27.1623 N.ar  1     1      -0.2304
     12 N13       -23.4513   58.6924  -26.9689 N.pl3 1     1      -0.2690
     13 C14       -24.3879   57.9031  -26.1709 C.3   1     1       0.0134
     14 C15       -24.3567   56.4462  -26.6469 C.3   1     1      -0.0372
     15 C16       -25.2023   55.5668  -25.7083 C.3   1     1      -0.0516
     16 C17       -24.7276   55.6684  -24.2536 C.3   1     1      -0.0530
     17 C18       -24.8959   57.1204  -23.8114 C.3   1     1      -0.0516
     18 C19       -23.9805   57.9830  -24.6951 C.3   1     1      -0.0372
     19 H1        -20.9984   59.2102  -27.4339 H     1     1       0.0635
     20 H2        -19.1369   60.7305  -27.9058 H     1     1       0.0747
     21 H3        -19.5144   63.1003  -27.9703 H     1     1       0.1361
     22 H11       -25.9381   62.4255  -26.7262 H     1     1       0.1047
     23 H13       -22.4578   58.6818  -26.7378 H     1     1       0.1294
     24 H14       -25.4177   58.3123  -26.2946 H     1     1       0.0464
     25 H151      -23.3147   56.0633  -26.7519 H     1     1       0.0280
     26 H152      -24.8302   56.4124  -27.6558 H     1     1       0.0280
     27 H161      -25.2251   54.5073  -26.0552 H     1     1       0.0266
     28 H162      -26.2483   55.9513  -25.7446 H     1     1       0.0266
     29 H171      -23.6893   55.2888  -24.1089 H     1     1       0.0265
     30 H172      -25.4079   55.0426  -23.6300 H     1     1       0.0265
     31 H181      -24.7112   57.2668  -22.7216 H     1     1       0.0266
     32 H182      -25.9496   57.4192  -24.0204 H     1     1       0.0266
     33 H191      -23.9451   59.0387  -24.3379 H     1     1       0.0280
     34 H192      -22.9490   57.5681  -24.6112 H     1     1       0.0280
@<TRIPOS>BOND
     1     1     2    2 
     2     1     7    1 
     3     1    19    1 
     4     2     3    am
     5     2    20    1 
     6     3     4    am
     7     3    21    1 
     8     4     5    2 
     9     4     6    1 
    10     6     7    ar
    11     6    11    ar
    12     7     8    ar
    13     8     9    ar
    14     8    12    1 
    15     9    10    ar
    16    10    11    ar
    17    10    22    1 
    18    12    13    1 
    19    12    23    1 
    20    13    14    1 
    21    13    18    1 
    22    13    24    1 
    23    14    15    1 
    24    14    25    1 
    25    14    26    1 
    26    15    16    1 
    27    15    27    1 
    28    15    28    1 
    29    16    17    1 
    30    16    29    1 
    31    16    30    1 
    32    17    18    1 
    33    17    31    1 
    34    17    32    1 
    35    18    33    1 
    36    18    34    1 
@<TRIPOS>MOLECULE
Molecule PRUEBA3_ligands_7.mol2
    11     0
SMALL
NO_CHARGES
@<TRIPOS>ATOM
      1 DON       -20.3249   62.5072  -27.7927 HB    0     HB      0.0000
      2 DON       -23.4513   58.6924  -26.9689 HB    1     HB      0.0000
      3 ACC       -21.6649   64.3113  -27.6679 HB    2     HB      0.0000
      4 ACC       -24.8225   60.6531  -26.8277 HB    3     HB      0.0000
      5 ACC       -23.9261   62.7661  -27.1623 HB    4     HB      0.0000
      6 AR        -21.4008   61.6921  -27.5442 AR    5     AR      0.0000
      7 AR        -23.7608   61.4231  -27.0863 AR    6     AR      0.0000
      8 HYD       -24.7795   56.0065  -26.1776 HYD   7     HYD     0.0000
      9 HYD       -24.9650   55.6176  -24.9810 HYD   8     HYD     0.0000
     10 HYD       -24.8118   56.3944  -24.0325 HYD   9     HYD     0.0000
     11 HYD       -24.4382   57.5517  -24.2532 HYD   10    HYD     0.0000
@<TRIPOS>BOND
@<TRIPOS>MOLECULE
PRUEBA3_ligands_8.mol2
    39    41
SMALL
NO_CHARGES
@<TRIPOS>ATOM
      1 PB        -15.9255   64.5606  -22.2678 P.3   1     ADP1    0.3343
      2 O1B       -15.3300   63.6759  -21.2532 O.co2 1     ADP1   -0.7433
      3 O2B       -16.5322   65.9479  -21.8674 O.co2 1     ADP1   -0.7433
      4 O3B       -14.9221   65.0351  -23.3910 O.co2 1     ADP1   -0.7433
      5 PA        -18.4398   63.2485  -23.6052 P.3   1     ADP1    0.4714
      6 O1A       -19.6038   63.4670  -22.7335 O.2   1     ADP1   -0.3864
      7 O2A       -18.0216   61.7903  -23.9728 O.2   1     ADP1   -0.3864
      8 O3A       -17.1103   63.9359  -23.1091 O.3   1     ADP1   -0.4589
      9 O5'       -18.6271   63.8435  -25.0841 O.3   1     ADP1   -0.5520
     10 C5'       -18.5718   65.1601  -25.5344 C.3   1     ADP1    0.0719
     11 C4'       -19.8115   65.5508  -26.3572 C.3   1     ADP1    0.1180
     12 O4'       -19.8665   64.7456  -27.5201 O.3   1     ADP1   -0.3492
     13 C3'       -21.1727   65.3948  -25.6352 C.3   1     ADP1    0.1139
     14 O3'       -21.4081   66.5601  -24.9192 O.3   1     ADP1   -0.3864
     15 C2'       -22.1161   65.2007  -26.8480 C.3   1     ADP1    0.1238
     16 O2'       -22.3763   66.4788  -27.3297 O.3   1     ADP1   -0.3852
     17 C1'       -21.1936   64.4347  -27.8539 C.3   1     ADP1    0.1509
     18 N9        -21.3776   62.9823  -27.7033 N.ar  1     ADP1   -0.1874
     19 C8        -20.4210   61.9445  -27.8479 C.ar  1     ADP1    0.0807
     20 N7        -20.9387   60.7209  -27.6564 N.ar  1     ADP1   -0.2370
     21 C5        -22.2961   60.9589  -27.3789 C.ar  1     ADP1    0.1382
     22 C6        -23.3631   60.0765  -27.0823 C.ar  1     ADP1    0.1344
     23 N6        -23.1535   58.7341  -27.0187 N.pl3 1     ADP1   -0.2849
     24 N1        -24.6250   60.5859  -26.8645 N.ar  1     ADP1   -0.2221
     25 C2        -24.7559   61.9444  -26.9477 C.ar  1     ADP1    0.1197
     26 N3        -23.8244   62.9002  -27.1946 N.ar  1     ADP1   -0.2213
     27 C4        -22.5872   62.3504  -27.4125 C.ar  1     ADP1    0.1468
     28 H5'1      -17.6336   65.3503  -26.1061 H     1     ADP1    0.0670
     29 H5'2      -18.5506   65.8177  -24.6343 H     1     ADP1    0.0670
     30 H4'       -19.7019   66.6147  -26.6724 H     1     ADP1    0.0656
     31 H3'       -21.1788   64.5008  -24.9690 H     1     ADP1    0.0648
     32 H3'       -22.2431   66.4645  -24.4764 H     1     ADP1    0.2100
     33 H2'       -23.0427   64.6359  -26.5916 H     1     ADP1    0.0660
     34 H2'       -22.9549   66.3597  -28.0736 H     1     ADP1    0.2101
     35 H1'       -22.1468   64.9164  -28.1741 H     1     ADP1    0.0804
     36 H8        -19.3607   62.1246  -28.0926 H     1     ADP1    0.0967
     37 H61       -23.9221   58.0985  -26.8051 H     1     ADP1    0.1254
     38 H62       -22.2195   58.3598  -27.1860 H     1     ADP1    0.1254
     39 H2        -25.7795   62.3232  -26.7892 H     1     ADP1    0.1048
@<TRIPOS>BOND
     1     1     2    1 
     2     1     3    1 
     3     1     4    1 
     4     1     8    1 
     5     5     6    1 
     6     5     7    1 
     7     5     8    1 
     8     5     9    1 
     9     9    10    1 
    10    10    11    1 
    11    10    28    1 
    12    10    29    1 
    13    11    12    1 
    14    11    13    1 
    15    11    30    1 
    16    12    17    1 
    17    13    14    1 
    18    13    15    1 
    19    13    31    1 
    20    14    32    1 
    21    15    16    1 
    22    15    17    1 
    23    15    33    1 
    24    16    34    1 
    25    17    18    1 
    26    17    35    1 
    27    18    19    ar
    28    18    27    ar
    29    19    20    ar
    30    19    36    1 
    31    20    21    ar
    32    21    22    ar
    33    21    27    ar
    34    22    23    1 
    35    22    24    ar
    36    23    37    1 
    37    23    38    1 
    38    24    25    ar
    39    25    26    ar
    40    25    39    1 
    41    26    27    ar
@<TRIPOS>MOLECULE
Molecule PRUEBA3_ligands_8.mol2
    17     0
SMALL
NO_CHARGES
@<TRIPOS>ATOM
      1 DON       -21.4081   66.5601  -24.9192 HB    0     HB      0.0000
      2 DON       -22.3763   66.4788  -27.3297 HB    1     HB      0.0000
      3 DON       -23.1535   58.7341  -27.0187 HB    2     HB      0.0000
      4 ACC       -19.6038   63.4670  -22.7335 HB    3     HB      0.0000
      5 ACC       -18.0216   61.7903  -23.9728 HB    4     HB      0.0000
      6 ACC       -17.1103   63.9359  -23.1091 HB    5     HB      0.0000
      7 ACC       -18.6271   63.8435  -25.0841 HB    6     HB      0.0000
      8 ACC       -19.8665   64.7456  -27.5201 HB    7     HB      0.0000
      9 ACC       -21.4081   66.5601  -24.9192 HB    8     HB      0.0000
     10 ACC       -22.3763   66.4788  -27.3297 HB    9     HB      0.0000
     11 ACC       -20.9387   60.7209  -27.6564 HB    10    HB      0.0000
     12 ACC       -24.6250   60.5859  -26.8645 HB    11    HB      0.0000
     13 ACC       -23.8244   62.9002  -27.1946 HB    12    HB      0.0000
     14 CAT       -21.3776   62.9823  -27.7033 CHG   13    CHG    -0.1874
     15 ANI       -15.9255   64.5606  -22.2678 CHG   14    CHG     0.3343
     16 AR        -21.5241   61.7914  -27.5998 AR    15    AR      0.0000
     17 AR        -23.5753   61.4694  -27.1468 AR    16    AR      0.0000
@<TRIPOS>BOND
@<TRIPOS>MOLECULE
PRUEBA3_ligands_9.mol2
    44    46
SMALL
NO_CHARGES
@<TRIPOS>ATOM
      1 C1        -23.7418   60.1294  -27.0833 C.2   1     B7      0.2329
      2 C2        -26.0605   61.1506  -26.6261 C.ar  1     B7      0.0188
      3 C3        -27.8614   62.8918  -26.2238 C.3   1     B7      0.0753
      4 C7        -28.5696   63.5680  -27.4449 C.3   1     B7      0.0681
      5 C8        -28.7981   62.5690  -28.4949 C.1   1     B7      0.0677
      6 C9        -24.4564   62.6330  -27.0189 C.ar  1     B7      0.1388
      7 C10       -22.2951   62.5686  -27.4812 C.ar  1     B7      0.0236
      8 C11       -21.0481   63.1479  -27.6980 C.ar  1     B7     -0.0121
      9 C12       -19.9154   62.3498  -27.8076 C.ar  1     B7      0.0956
     10 C13       -17.8189   61.9839  -28.9416 C.3   1     B7      0.0431
     11 C14       -20.0444   60.9729  -27.6464 C.ar  1     B7      0.0709
     12 C15       -21.2835   60.3931  -27.4329 C.ar  1     B7     -0.0394
     13 C16       -22.4104   61.1903  -27.3496 C.ar  1     B7     -0.0420
     14 CL        -18.6389   59.9674  -27.7380 Cl    1     B7     -0.0809
     15 O2        -18.6722   62.8197  -28.1404 O.3   1     B7     -0.3464
     16 N4        -23.1743   63.0202  -27.2697 N.pl3 1     B7     -0.2411
     17 C         -24.7266   61.2237  -26.9191 C.ar  1     B7      0.0836
     18 N         -24.0195   58.9751  -26.4973 N.am  1     B7     -0.2681
     19 O         -22.7287   60.3131  -27.7573 O.2   1     B7     -0.2741
     20 N3        -25.5329   63.3490  -26.8196 N.ar  1     B7     -0.1802
     21 N1        -26.5051   62.4149  -26.5663 N.ar  1     B7     -0.1671
     22 N2        -28.9991   61.8224  -29.3276 N.1   1     B7     -0.1962
     23 C6        -29.9165   64.1552  -26.9906 C.3   1     B7     -0.0122
     24 C5        -29.7061   65.0892  -25.8224 C.3   1     B7      0.0490
     25 O1        -29.0956   64.4346  -24.7042 O.3   1     B7     -0.3781
     26 C4        -27.8060   63.8835  -25.0577 C.3   1     B7      0.0666
     27 H2        -26.6533   60.2336  -26.4698 H     1     B7      0.0772
     28 H3        -28.4715   62.0137  -25.9077 H     1     B7      0.0521
     29 H7        -27.9236   64.3848  -27.8434 H     1     B7      0.0471
     30 H11       -20.9586   64.2439  -27.7832 H     1     B7      0.0660
     31 H131      -16.8072   62.3663  -29.2124 H     1     B7      0.0529
     32 H132      -18.3609   61.6984  -29.8732 H     1     B7      0.0529
     33 H133      -17.6603   61.0435  -28.3640 H     1     B7      0.0529
     34 H15       -21.3715   59.2985  -27.3296 H     1     B7      0.0633
     35 H16       -23.3993   60.7326  -27.1789 H     1     B7      0.0634
     36 H4        -24.3189   62.8919  -27.2429 H     1     B7      0.1351
     37 H1        -23.3414   58.2216  -26.6104 H     1     B7      0.1269
     38 H2        -24.8742   58.8450  -25.9562 H     1     B7      0.1269
     39 H61       -30.6627   63.3594  -26.7600 H     1     B7      0.0300
     40 H62       -30.3211   64.7601  -27.8354 H     1     B7      0.0300
     41 H51       -30.6603   65.5846  -25.5266 H     1     B7      0.0560
     42 H52       -29.0075   65.8900  -26.1598 H     1     B7      0.0560
     43 H41       -27.0737   64.6978  -25.2675 H     1     B7      0.0576
     44 H42       -27.4316   63.3252  -24.1682 H     1     B7      0.0576
@<TRIPOS>BOND
     1     1    17    1 
     2     1    18    am
     3     1    19    2 
     4     2    17    ar
     5     2    21    ar
     6     2    27    1 
     7     3     4    1 
     8     3    21    1 
     9     3    26    1 
    10     3    28    1 
    11     4     5    1 
    12     4    23    1 
    13     4    29    1 
    14     5    22    1 
    15     6    16    1 
    16     6    17    ar
    17     6    20    ar
    18     7     8    ar
    19     7    13    ar
    20     7    16    1 
    21     8     9    ar
    22     8    30    1 
    23     9    11    ar
    24     9    15    1 
    25    10    15    1 
    26    10    31    1 
    27    10    32    1 
    28    10    33    1 
    29    11    12    ar
    30    11    14    1 
    31    12    13    ar
    32    12    34    1 
    33    13    35    1 
    34    16    36    1 
    35    18    37    1 
    36    18    38    1 
    37    20    21    ar
    38    23    24    1 
    39    23    39    1 
    40    23    40    1 
    41    24    25    1 
    42    24    41    1 
    43    24    42    1 
    44    25    26    1 
    45    26    43    1 
    46    26    44    1 
@<TRIPOS>MOLECULE
Molecule PRUEBA3_ligands_9.mol2
    12     0
SMALL
NO_CHARGES
@<TRIPOS>ATOM
      1 DON       -23.4375   63.3920  -27.3587 HB    0     HB      0.0000
      2 DON       -24.0195   58.9751  -26.4973 HB    1     HB      0.0000
      3 ACC       -18.6722   62.8197  -28.1404 HB    2     HB      0.0000
      4 ACC       -22.7287   60.3131  -27.7573 HB    3     HB      0.0000
      5 ACC       -25.5329   63.3490  -26.8196 HB    4     HB      0.0000
      6 ACC       -28.9991   61.8224  -29.3276 HB    5     HB      0.0000
      7 ACC       -29.0956   64.4346  -24.7042 HB    6     HB      0.0000
      8 CAT       -26.5051   62.4149  -26.5663 CHG   7     CHG    -0.1671
      9 AR        -25.4563   62.1542  -26.7900 AR    8     AR      0.0000
     10 AR        -21.1661   61.7704  -27.5693 AR    9     AR      0.0000
     11 HYD       -29.2430   63.8616  -27.2178 HYD   10    HYD     0.0000
     12 HYD       -17.8189   61.9839  -28.9416 HYD   11    HYD     0.0000
@<TRIPOS>BOND
@<TRIPOS>MOLECULE
PRUEBA3_ligands_11.mol2
    64    67
SMALL
NO_CHARGES
@<TRIPOS>ATOM
      1 C1        -26.0955   60.6702  -26.6189 C.ar  1     BFK1    0.0046
      2 C2        -26.0993   62.0478  -26.8100 C.ar  1     BFK1    0.0368
      3 C3        -23.8513   62.0859  -27.1241 C.ar  1     BFK1    0.2074
      4 C7        -21.0484   57.1636  -27.4779 C.ar  1     BFK1   -0.0599
      5 C8        -21.3945   55.8275  -27.3468 C.ar  1     BFK1   -0.0563
      6 C9        -22.6856   55.4607  -26.9868 C.ar  1     BFK1   -0.0207
      7 C10       -23.6319   56.4627  -26.7696 C.ar  1     BFK1   -0.0382
      8 C11       -23.0619   54.0129  -26.8231 C.3   1     BFK1    0.0693
      9 C12       -21.4224   62.4568  -27.5958 C.ar  1     BFK1    0.0231
     10 C13       -20.9716   61.1404  -27.5413 C.ar  1     BFK1   -0.0255
     11 C14       -19.6343   60.8141  -27.7592 C.ar  1     BFK1    0.0192
     12 C15       -18.7427   61.8435  -28.0907 C.ar  1     BFK1   -0.0480
     13 C16       -19.2131   63.1463  -28.2020 C.ar  1     BFK1   -0.0231
     14 C19       -19.5307   58.8176  -26.3534 C.3   1     BFK1    0.0165
     15 C20       -19.1548   57.3405  -26.3667 C.3   1     BFK1    0.0118
     16 C21       -17.4999   57.7270  -28.0404 C.3   1     BFK1    0.0118
     17 C22       -17.7975   59.2111  -28.0539 C.3   1     BFK1    0.0165
     18 O2        -18.8340   65.5889  -29.0025 O.2   1     BFK1   -0.9602
     19 S         -18.0780   64.4293  -28.6428 S.O2  1     BFK1    2.3060
     20 O1        -17.1512   63.8971  -29.5990 O.2   1     BFK1   -0.9602
     21 C18       -17.2159   64.7674  -27.1534 C.3   1     BFK1   -0.9802
     22 N4        -19.1825   59.4762  -27.6249 N.pl3 1     BFK1   -0.2717
     23 N5        -17.7435   57.1664  -26.7138 N.3   1     BFK1   -0.3029
     24 C23       -17.3644   55.7526  -26.6668 C.3   1     BFK1   -0.0127
     25 C17       -20.5371   63.4714  -27.9512 C.ar  1     BFK1   -0.0478
     26 N3        -22.7563   62.8253  -27.3779 N.pl3 1     BFK1   -0.2265
     27 N         -24.9984   62.7840  -27.0350 N.ar  1     BFK1   -0.2252
     28 N1        -23.7217   60.7467  -27.0272 N.ar  1     BFK1   -0.2051
     29 C4        -24.8408   60.0482  -26.7770 C.ar  1     BFK1    0.1186
     30 C         -27.3622   59.8923  -26.3539 C.3   1     BFK1   -0.0353
     31 N2        -24.4900   58.6475  -26.6267 N.pl3 1     BFK1   -0.2426
     32 C5        -23.2999   57.8063  -26.9192 C.ar  1     BFK1    0.0213
     33 O         -22.0653   53.1424  -27.3492 O.3   1     BFK1   -0.3904
     34 C6        -21.9907   58.1551  -27.2488 C.ar  1     BFK1   -0.0435
     35 H2        -27.0701   62.5701  -26.7744 H     1     BFK1    0.0834
     36 H7        -20.0198   57.4390  -27.7656 H     1     BFK1    0.0618
     37 H8        -20.6368   55.0472  -27.5301 H     1     BFK1    0.0621
     38 H10       -24.6583   56.1862  -26.4750 H     1     BFK1    0.0637
     39 H111      -22.7111   53.4026  -27.6878 H     1     BFK1    0.0607
     40 H112      -24.1755   53.9585  -26.8077 H     1     BFK1    0.0607
     41 H13       -21.6918   60.3348  -27.3200 H     1     BFK1    0.0649
     42 H15       -17.6760   61.6211  -28.2618 H     1     BFK1    0.0626
     43 H191      -19.0765   59.3460  -25.4829 H     1     BFK1    0.0443
     44 H192      -20.6381   58.8785  -26.2390 H     1     BFK1    0.0443
     45 H201      -19.8208   56.7514  -27.0394 H     1     BFK1    0.0439
     46 H202      -19.2952   56.9504  -25.3317 H     1     BFK1    0.0439
     47 H211      -16.4669   57.5087  -28.3988 H     1     BFK1    0.0439
     48 H212      -18.2099   57.2368  -28.7466 H     1     BFK1    0.0439
     49 H221      -17.5813   59.6648  -29.0492 H     1     BFK1    0.0443
     50 H222      -17.1197   59.6945  -27.3121 H     1     BFK1    0.0443
     51 H181      -16.5004   65.5761  -27.4312 H     1     BFK1    0.2108
     52 H182      -16.7384   63.8738  -26.6879 H     1     BFK1    0.2108
     53 H183      -17.9444   65.1886  -26.4220 H     1     BFK1    0.2108
     54 H231      -16.2893   55.6200  -26.9312 H     1     BFK1    0.0391
     55 H232      -18.0268   55.1269  -27.3093 H     1     BFK1    0.0391
     56 H233      -17.4951   55.4063  -25.6150 H     1     BFK1    0.0391
     57 H17       -20.8834   64.5156  -28.0316 H     1     BFK1    0.0626
     58 H3        -22.9040   63.7930  -27.1244 H     1     BFK1    0.1365
     59 H1        -27.3592   58.7879  -26.2008 H     1     BFK1    0.0279
     60 H2        -28.0775   60.1181  -27.1790 H     1     BFK1    0.0279
     61 H3        -27.8070   60.3312  -25.4305 H     1     BFK1    0.0279
     62 H2        -25.6235   58.2368  -26.3281 H     1     BFK1    0.1350
     63 H         -22.3028   52.2284  -27.2458 H     1     BFK1    0.2098
     64 H6        -21.7051   59.2176  -27.3271 H     1     BFK1    0.0633
@<TRIPOS>BOND
     1     1     2    ar
     2     1    29    ar
     3     1    30    1 
     4     2    27    ar
     5     2    35    1 
     6     3    26    1 
     7     3    27    ar
     8     3    28    ar
     9     4     5    ar
    10     4    34    ar
    11     4    36    1 
    12     5     6    ar
    13     5    37    1 
    14     6     7    ar
    15     6     8    1 
    16     7    32    ar
    17     7    38    1 
    18     8    33    1 
    19     8    39    1 
    20     8    40    1 
    21     9    10    ar
    22     9    25    ar
    23     9    26    1 
    24    10    11    ar
    25    10    41    1 
    26    11    12    ar
    27    11    22    1 
    28    12    13    ar
    29    12    42    1 
    30    13    19    1 
    31    13    25    ar
    32    14    15    1 
    33    14    22    1 
    34    14    43    1 
    35    14    44    1 
    36    15    23    1 
    37    15    45    1 
    38    15    46    1 
    39    16    17    1 
    40    16    23    1 
    41    16    47    1 
    42    16    48    1 
    43    17    22    1 
    44    17    49    1 
    45    17    50    1 
    46    18    19    2 
    47    19    20    2 
    48    19    21    1 
    49    21    51    1 
    50    21    52    1 
    51    21    53    1 
    52    23    24    1 
    53    24    54    1 
    54    24    55    1 
    55    24    56    1 
    56    25    57    1 
    57    26    58    1 
    58    28    29    ar
    59    29    31    1 
    60    30    59    1 
    61    30    60    1 
    62    30    61    1 
    63    31    32    1 
    64    31    62    1 
    65    32    34    ar
    66    33    63    1 
    67    34    64    1 
@<TRIPOS>MOLECULE
Molecule PRUEBA3_ligands_11.mol2
    16     0
SMALL
NO_CHARGES
@<TRIPOS>ATOM
      1 DON       -22.7680   62.8130  -27.3725 HB    0     HB      0.0000
      2 DON       -24.7516   58.6954  -26.5925 HB    1     HB      0.0000
      3 DON       -22.0653   53.1424  -27.3492 HB    2     HB      0.0000
      4 ACC       -18.8340   65.5889  -29.0025 HB    3     HB      0.0000
      5 ACC       -17.1512   63.8971  -29.5990 HB    4     HB      0.0000
      6 ACC       -17.7435   57.1664  -26.7138 HB    5     HB      0.0000
      7 ACC       -24.9984   62.7840  -27.0350 HB    6     HB      0.0000
      8 ACC       -23.7217   60.7467  -27.0272 HB    7     HB      0.0000
      9 ACC       -22.0653   53.1424  -27.3492 HB    8     HB      0.0000
     10 AR        -24.9345   61.3971  -26.8987 AR    9     AR      0.0000
     11 AR        -22.3418   56.8126  -27.1249 AR    10    AR      0.0000
     12 AR        -20.0869   62.1454  -27.8567 AR    11    AR      0.0000
     13 HYD       -26.7289   60.2813  -26.4864 HYD   12    HYD     0.0000
     14 HYD       -17.2159   64.7674  -27.1534 HYD   13    HYD     0.0000
     15 HYD       -17.3644   55.7526  -26.6668 HYD   14    HYD     0.0000
     16 HYD       -27.3622   59.8923  -26.3539 HYD   15    HYD     0.0000
@<TRIPOS>BOND
@<TRIPOS>MOLECULE
PRUEBA3_ligands_12.mol2
    42    45
SMALL
NO_CHARGES
@<TRIPOS>ATOM
      1 C4        -20.2052   63.7714  -28.0117 C.ar  1     KEJ1    0.0345
      2 C14       -24.5068   61.0207  -26.9018 C.ar  1     KEJ1    0.1462
      3 C5        -19.6386   64.8240  -27.2767 C.ar  1     KEJ1   -0.0316
      4 C6        -20.1649   66.0972  -27.3793 C.ar  1     KEJ1    0.0418
      5 C11       -22.2965   62.2696  -27.4335 C.2   1     KEJ1    0.2405
      6 C7        -21.2460   66.3715  -28.1941 C.ar  1     KEJ1   -0.0409
      7 C8        -21.8150   65.3438  -28.9312 C.ar  1     KEJ1   -0.0297
      8 C9        -21.3018   64.0524  -28.8464 C.ar  1     KEJ1    0.0851
      9 C10       -22.7518   63.2380  -30.5788 C.3   1     KEJ1    0.0431
     10 C12       -23.8846   62.2618  -27.1433 C.ar  1     KEJ1    0.0915
     11 C13       -24.9297   63.2012  -27.0488 C.ar  1     KEJ1    0.0579
     12 N1        -18.3058   62.2690  -28.0669 N.ar  1     KEJ1   -0.1916
     13 N2        -21.5609   61.2682  -27.4539 N.am  1     KEJ1   -0.2214
     14 C3        -19.6204   62.4150  -27.8908 C.ar  1     KEJ1    0.1074
     15 N3        -26.1039   62.6441  -26.7718 N.ar  1     KEJ1   -0.1945
     16 O1        -21.8004   63.3905  -27.5779 O.2   1     KEJ1   -0.2735
     17 N5        -24.0012   59.7628  -26.8455 N.ar  1     KEJ1   -0.2407
     18 C15       -24.8800   58.8056  -26.5734 C.ar  1     KEJ1    0.0305
     19 C16       -26.2586   59.0246  -26.3521 C.ar  1     KEJ1   -0.0306
     20 C17       -26.7299   60.2934  -26.4002 C.ar  1     KEJ1    0.0120
     21 N4        -25.8329   61.2952  -26.6817 N.ar  1     KEJ1   -0.1260
     22 C2        -20.2574   61.1315  -27.6624 C.ar  1     KEJ1    0.0624
     23 C1        -19.2220   60.2410  -27.7385 C.ar  1     KEJ1    0.0235
     24 N         -18.0987   60.9300  -27.9631 N.ar  1     KEJ1   -0.1768
     25 C         -16.7434   60.4051  -28.0731 C.3   1     KEJ1    0.0136
     26 O         -21.8201   62.9819  -29.5247 O.3   1     KEJ1   -0.3473
     27 CL        -19.4740   67.3794  -26.4170 Cl    1     KEJ1   -0.0835
     28 H5        -18.7743   64.6351  -26.6181 H     1     KEJ1    0.0639
     29 H7        -21.6517   67.3952  -28.2578 H     1     KEJ1    0.0633
     30 H8        -22.6775   65.5503  -29.5869 H     1     KEJ1    0.0644
     31 H101      -23.1738   62.3662  -31.1311 H     1     KEJ1    0.0529
     32 H102      -22.2912   63.9437  -31.3090 H     1     KEJ1    0.0529
     33 H103      -23.6151   63.7729  -30.1189 H     1     KEJ1    0.0529
     34 H13       -24.7883   64.2859  -27.1898 H     1     KEJ1    0.0851
     35 H2        -22.2754   61.6572  -27.5237 H     1     KEJ1    0.1367
     36 H15       -24.5089   57.7685  -26.5160 H     1     KEJ1    0.0830
     37 H16       -26.9366   58.1797  -26.1446 H     1     KEJ1    0.0643
     38 H17       -27.7954   60.5144  -26.2198 H     1     KEJ1    0.0769
     39 H1        -19.3002   59.1459  -27.6331 H     1     KEJ1    0.0780
     40 H1        -16.5735   59.3065  -27.9879 H     1     KEJ1    0.0414
     41 H2        -16.0983   60.9246  -27.3267 H     1     KEJ1    0.0414
     42 H3        -16.3684   60.7061  -29.0791 H     1     KEJ1    0.0414
@<TRIPOS>BOND
     1     1     3    ar
     2     1     8    ar
     3     1    14    1 
     4     2    10    ar
     5     2    17    1 
     6     2    21    ar
     7     3     4    ar
     8     3    28    1 
     9     4     6    ar
    10     4    27    1 
    11     5    10    1 
    12     5    13    am
    13     5    16    2 
    14     6     7    ar
    15     6    29    1 
    16     7     8    ar
    17     7    30    1 
    18     8    26    1 
    19     9    26    1 
    20     9    31    1 
    21     9    32    1 
    22     9    33    1 
    23    10    11    ar
    24    11    15    ar
    25    11    34    1 
    26    12    14    ar
    27    12    24    ar
    28    13    22    1 
    29    13    35    1 
    30    14    22    ar
    31    15    21    ar
    32    17    18    2 
    33    18    19    2 
    34    18    36    1 
    35    19    20    2 
    36    19    37    1 
    37    20    21    1 
    38    20    38    1 
    39    22    23    ar
    40    23    24    ar
    41    23    39    1 
    42    24    25    1 
    43    25    40    1 
    44    25    41    1 
    45    25    42    1 
@<TRIPOS>MOLECULE
Molecule PRUEBA3_ligands_12.mol2
    14     0
SMALL
NO_CHARGES
@<TRIPOS>ATOM
      1 DON       -21.6271   60.8792  -27.4022 HB    0     HB      0.0000
      2 ACC       -18.3058   62.2690  -28.0669 HB    1     HB      0.0000
      3 ACC       -26.1039   62.6441  -26.7718 HB    2     HB      0.0000
      4 ACC       -21.8004   63.3905  -27.5779 HB    3     HB      0.0000
      5 ACC       -24.0012   59.7628  -26.8455 HB    4     HB      0.0000
      6 ACC       -21.8201   62.9819  -29.5247 HB    5     HB      0.0000
      7 CAT       -25.8329   61.2952  -26.6817 CHG   6     CHG    -0.1260
      8 CAT       -18.0987   60.9300  -27.9631 CHG   7     CHG    -0.1768
      9 AR        -20.7286   65.0767  -28.1066 AR    8     AR      0.0000
     10 AR        -25.0516   62.0846  -26.9095 AR    9     AR      0.0000
     11 AR        -25.3682   60.0337  -26.6258 AR    10    AR      0.0000
     12 AR        -19.1008   61.3973  -27.8643 AR    11    AR      0.0000
     13 HYD       -22.7518   63.2380  -30.5788 HYD   12    HYD     0.0000
     14 HYD       -16.7434   60.4051  -28.0731 HYD   13    HYD     0.0000
@<TRIPOS>BOND
