CHEMBL4285366


 27 31  0  0  0  0  0  0  0  0999 V2000
   11.6208   13.4914  -15.5260 C   0  0  0  0  0  0  0  0  0  0  0  0
   10.2954   13.1156  -16.2132 C   0  0  0  0  0  0  0  0  0  0  0  0
   12.0288   12.8783  -17.8801 C   0  0  0  0  0  0  0  0  0  0  0  0
   12.6902   13.2169  -16.5679 C   0  0  0  0  0  0  0  0  0  0  0  0
   13.9501   12.4673  -16.1605 C   0  0  0  0  0  0  0  0  0  0  0  0
   14.0462   13.9066  -16.5565 C   0  0  0  0  0  0  0  0  0  0  0  0
    9.7205   12.6296  -18.6487 C   0  0  0  0  0  0  0  0  0  0  0  0
   10.6033   12.8840  -17.6215 N   0  0  0  0  0  0  0  0  0  0  0  0
   10.0721   12.2970  -19.7781 O   0  0  0  0  0  0  0  0  0  0  0  0
    8.2729   12.7340  -18.3831 C   0  0  0  0  0  0  0  0  0  0  0  0
    7.4362   11.7154  -18.8308 C   0  0  0  0  0  0  0  0  0  0  0  0
    6.0814   11.8549  -18.6000 C   0  0  0  0  0  0  0  0  0  0  0  0
    6.3715   13.9066  -17.5860 C   0  0  0  0  0  0  0  0  0  0  0  0
    7.7397   13.8664  -17.7725 C   0  0  0  0  0  0  0  0  0  0  0  0
    5.5325   12.9214  -17.9762 N   0  0  0  0  0  0  0  0  0  0  0  0
   11.0551   15.9129  -15.7555 C   0  0  0  0  0  0  0  0  0  0  0  0
   11.6624   14.8570  -14.9667 N   0  0  0  0  0  0  0  0  0  0  0  0
   12.1540   15.1176  -13.6923 C   0  0  0  0  0  0  0  0  0  0  0  0
   13.8494   16.1085  -12.3871 C   0  0  0  0  0  0  0  0  0  0  0  0
   12.2473   15.0627  -11.2937 C   0  0  0  0  0  0  0  0  0  0  0  0
   11.5768   14.7017  -12.4588 C   0  0  0  0  0  0  0  0  0  0  0  0
   10.4271   13.9715  -12.0162 C   0  0  0  0  0  0  0  0  0  0  0  0
   10.4436   13.9141  -10.6382 C   0  0  0  0  0  0  0  0  0  0  0  0
   13.3027   15.8450  -13.5862 N   0  0  0  0  0  0  0  0  0  0  0  0
   13.3837   15.7614  -11.1849 N   0  0  0  0  0  0  0  0  0  0  0  0
   11.5584   14.5821  -10.2151 N   0  0  0  0  0  0  0  0  0  0  0  0
   11.8542   14.7164   -9.2589 H   0  0  0  0  0  0  0  0  0  0  0  0
 16 17  1  0  0  0
  1 17  1  0  0  0
  1  2  1  0  0  0
  2  8  1  0  0  0
  3  8  1  0  0  0
  3  4  1  0  0  0
  4  5  1  0  0  0
  4  1  1  0  0  0
  5  6  1  0  0  0
  6  4  1  0  0  0
  7 10  1  0  0  0
 11 12  2  0  0  0
 13 15  2  0  0  0
 14 10  2  0  0  0
 19 24  2  0  0  0
 20 25  2  0  0  0
 21 22  1  0  0  0
 21 18  2  0  0  0
 23 26  1  0  0  0
 17 18  1  0  0  0
  8  7  1  0  0  0
 26 20  1  0  0  0
  7  9  2  0  0  0
 10 11  1  0  0  0
 12 15  1  0  0  0
 13 14  1  0  0  0
 18 24  1  0  0  0
 19 25  1  0  0  0
 20 21  1  0  0  0
 22 23  2  0  0  0
 26 27  1  0  0  0
M  END
> <minimizedAffinity>
-8.80502

$$$$
CHEMBL4285366


 27 31  0  0  0  0  0  0  0  0999 V2000
   11.8748   13.4254  -16.4564 C   0  0  0  0  0  0  0  0  0  0  0  0
   11.0129   12.5857  -17.4168 C   0  0  0  0  0  0  0  0  0  0  0  0
   12.7180   13.6424  -18.7643 C   0  0  0  0  0  0  0  0  0  0  0  0
   12.9965   13.9738  -17.3198 C   0  0  0  0  0  0  0  0  0  0  0  0
   14.4283   13.9068  -16.8093 C   0  0  0  0  0  0  0  0  0  0  0  0
   13.7646   15.2383  -16.9653 C   0  0  0  0  0  0  0  0  0  0  0  0
   10.9677   12.4229  -19.9603 C   0  0  0  0  0  0  0  0  0  0  0  0
   11.4982   12.8605  -18.7660 N   0  0  0  0  0  0  0  0  0  0  0  0
   11.5239   12.5749  -21.0454 O   0  0  0  0  0  0  0  0  0  0  0  0
    9.6759   11.7102  -19.9447 C   0  0  0  0  0  0  0  0  0  0  0  0
    9.4068   10.7923  -20.9563 C   0  0  0  0  0  0  0  0  0  0  0  0
    8.1762   10.1650  -20.9377 C   0  0  0  0  0  0  0  0  0  0  0  0
    7.5112   11.3225  -19.0564 C   0  0  0  0  0  0  0  0  0  0  0  0
    8.7086   12.0080  -18.9881 C   0  0  0  0  0  0  0  0  0  0  0  0
    7.2282   10.4003  -20.0031 N   0  0  0  0  0  0  0  0  0  0  0  0
   10.3410   15.3960  -16.4746 C   0  0  0  0  0  0  0  0  0  0  0  0
   11.1355   14.4578  -15.7035 N   0  0  0  0  0  0  0  0  0  0  0  0
   11.0992   14.4730  -14.3135 C   0  0  0  0  0  0  0  0  0  0  0  0
    9.9406   13.8550  -12.3550 C   0  0  0  0  0  0  0  0  0  0  0  0
   11.8135   14.9827  -12.0785 C   0  0  0  0  0  0  0  0  0  0  0  0
   12.0546   15.0752  -13.4462 C   0  0  0  0  0  0  0  0  0  0  0  0
   13.2843   15.8004  -13.5598 C   0  0  0  0  0  0  0  0  0  0  0  0
   13.7295   16.1163  -12.2931 C   0  0  0  0  0  0  0  0  0  0  0  0
   10.0540   13.8533  -13.6942 N   0  0  0  0  0  0  0  0  0  0  0  0
   10.7807   14.3910  -11.4665 N   0  0  0  0  0  0  0  0  0  0  0  0
   12.8221   15.6121  -11.4039 N   0  0  0  0  0  0  0  0  0  0  0  0
   12.8636   15.6789  -10.3971 H   0  0  0  0  0  0  0  0  0  0  0  0
 16 17  1  0  0  0
  1 17  1  0  0  0
  1  2  1  0  0  0
  2  8  1  0  0  0
  3  8  1  0  0  0
  3  4  1  0  0  0
  4  5  1  0  0  0
  4  1  1  0  0  0
  5  6  1  0  0  0
  6  4  1  0  0  0
  7 10  1  0  0  0
 11 12  2  0  0  0
 13 15  2  0  0  0
 14 10  2  0  0  0
 19 24  2  0  0  0
 20 25  2  0  0  0
 21 22  1  0  0  0
 21 18  2  0  0  0
 23 26  1  0  0  0
 17 18  1  0  0  0
  8  7  1  0  0  0
 26 20  1  0  0  0
  7  9  2  0  0  0
 10 11  1  0  0  0
 12 15  1  0  0  0
 13 14  1  0  0  0
 18 24  1  0  0  0
 19 25  1  0  0  0
 20 21  1  0  0  0
 22 23  2  0  0  0
 26 27  1  0  0  0
M  END
> <minimizedAffinity>
-8.68869

$$$$
CHEMBL4285366


 27 31  0  0  0  0  0  0  0  0999 V2000
   11.1361   13.7198  -17.0897 C   0  0  0  0  0  0  0  0  0  0  0  0
   11.3744   13.6080  -18.6066 C   0  0  0  0  0  0  0  0  0  0  0  0
    9.6603   11.9960  -18.0564 C   0  0  0  0  0  0  0  0  0  0  0  0
    9.9775   12.7802  -16.8081 C   0  0  0  0  0  0  0  0  0  0  0  0
    8.8342   13.2542  -15.9229 C   0  0  0  0  0  0  0  0  0  0  0  0
    9.7341   12.1612  -15.4399 C   0  0  0  0  0  0  0  0  0  0  0  0
   10.5237   11.9478  -20.3440 C   0  0  0  0  0  0  0  0  0  0  0  0
   10.5574   12.4941  -19.0792 N   0  0  0  0  0  0  0  0  0  0  0  0
    9.6984   11.1094  -20.6986 O   0  0  0  0  0  0  0  0  0  0  0  0
   11.5101   12.4052  -21.3414 C   0  0  0  0  0  0  0  0  0  0  0  0
   11.0489   12.9238  -22.5482 C   0  0  0  0  0  0  0  0  0  0  0  0
   11.9936   13.3119  -23.4784 C   0  0  0  0  0  0  0  0  0  0  0  0
   13.7376   12.6677  -22.1127 C   0  0  0  0  0  0  0  0  0  0  0  0
   12.8755   12.2450  -21.1194 C   0  0  0  0  0  0  0  0  0  0  0  0
   13.3270   13.2074  -23.2820 N   0  0  0  0  0  0  0  0  0  0  0  0
   13.0180   12.2086  -16.4490 C   0  0  0  0  0  0  0  0  0  0  0  0
   12.3287   13.4709  -16.2559 N   0  0  0  0  0  0  0  0  0  0  0  0
   12.8478   14.4388  -15.4032 C   0  0  0  0  0  0  0  0  0  0  0  0
   14.4944   16.0887  -15.0476 C   0  0  0  0  0  0  0  0  0  0  0  0
   13.0503   15.7685  -13.4142 C   0  0  0  0  0  0  0  0  0  0  0  0
   12.3679   14.7708  -14.1043 C   0  0  0  0  0  0  0  0  0  0  0  0
   11.3147   14.3623  -13.2241 C   0  0  0  0  0  0  0  0  0  0  0  0
   11.3966   15.1030  -12.0634 C   0  0  0  0  0  0  0  0  0  0  0  0
   13.9241   15.1583  -15.8319 N   0  0  0  0  0  0  0  0  0  0  0  0
   14.1173   16.4653  -13.8234 N   0  0  0  0  0  0  0  0  0  0  0  0
   12.4589   15.9529  -12.1956 N   0  0  0  0  0  0  0  0  0  0  0  0
   12.7816   16.6250  -11.5145 H   0  0  0  0  0  0  0  0  0  0  0  0
 16 17  1  0  0  0
  1 17  1  0  0  0
  1  2  1  0  0  0
  2  8  1  0  0  0
  3  8  1  0  0  0
  3  4  1  0  0  0
  4  5  1  0  0  0
  4  1  1  0  0  0
  5  6  1  0  0  0
  6  4  1  0  0  0
  7 10  1  0  0  0
 11 12  2  0  0  0
 13 15  2  0  0  0
 14 10  2  0  0  0
 19 24  2  0  0  0
 20 25  2  0  0  0
 21 22  1  0  0  0
 21 18  2  0  0  0
 23 26  1  0  0  0
 17 18  1  0  0  0
  8  7  1  0  0  0
 26 20  1  0  0  0
  7  9  2  0  0  0
 10 11  1  0  0  0
 12 15  1  0  0  0
 13 14  1  0  0  0
 18 24  1  0  0  0
 19 25  1  0  0  0
 20 21  1  0  0  0
 22 23  2  0  0  0
 26 27  1  0  0  0
M  END
> <minimizedAffinity>
-8.32162

$$$$
CHEMBL4285366


 27 31  0  0  0  0  0  0  0  0999 V2000
   11.2355   13.9062  -17.0146 C   0  0  0  0  0  0  0  0  0  0  0  0
   11.5452   14.5318  -18.3867 C   0  0  0  0  0  0  0  0  0  0  0  0
   10.6129   12.3449  -18.8198 C   0  0  0  0  0  0  0  0  0  0  0  0
   10.5474   12.5911  -17.3335 C   0  0  0  0  0  0  0  0  0  0  0  0
    9.2835   12.2107  -16.5766 C   0  0  0  0  0  0  0  0  0  0  0  0
   10.5330   11.4149  -16.3687 C   0  0  0  0  0  0  0  0  0  0  0  0
   11.4922   13.5683  -20.7462 C   0  0  0  0  0  0  0  0  0  0  0  0
   11.2632   13.5079  -19.3885 N   0  0  0  0  0  0  0  0  0  0  0  0
   11.0876   12.7224  -21.5403 O   0  0  0  0  0  0  0  0  0  0  0  0
   12.2398   14.7184  -21.2897 C   0  0  0  0  0  0  0  0  0  0  0  0
   11.6101   15.5489  -22.2127 C   0  0  0  0  0  0  0  0  0  0  0  0
   12.3441   16.5975  -22.7322 C   0  0  0  0  0  0  0  0  0  0  0  0
   14.2193   16.0032  -21.5271 C   0  0  0  0  0  0  0  0  0  0  0  0
   13.5756   14.9238  -20.9537 C   0  0  0  0  0  0  0  0  0  0  0  0
   13.6299   16.8504  -22.4000 N   0  0  0  0  0  0  0  0  0  0  0  0
   13.5203   12.9871  -16.6013 C   0  0  0  0  0  0  0  0  0  0  0  0
   12.4006   13.7734  -16.1177 N   0  0  0  0  0  0  0  0  0  0  0  0
   12.4846   14.4589  -14.9108 C   0  0  0  0  0  0  0  0  0  0  0  0
   13.6733   16.0107  -13.5923 C   0  0  0  0  0  0  0  0  0  0  0  0
   11.8747   15.1185  -12.6842 C   0  0  0  0  0  0  0  0  0  0  0  0
   11.5929   14.3449  -13.8065 C   0  0  0  0  0  0  0  0  0  0  0  0
   10.4013   13.6242  -13.4728 C   0  0  0  0  0  0  0  0  0  0  0  0
   10.0167   13.9735  -12.1951 C   0  0  0  0  0  0  0  0  0  0  0  0
   13.5149   15.3367  -14.7441 N   0  0  0  0  0  0  0  0  0  0  0  0
   12.8939   15.9681  -12.5091 N   0  0  0  0  0  0  0  0  0  0  0  0
   10.9249   14.8827  -11.7296 N   0  0  0  0  0  0  0  0  0  0  0  0
   10.9211   15.3290  -10.8238 H   0  0  0  0  0  0  0  0  0  0  0  0
 16 17  1  0  0  0
  1 17  1  0  0  0
  1  2  1  0  0  0
  2  8  1  0  0  0
  3  8  1  0  0  0
  3  4  1  0  0  0
  4  5  1  0  0  0
  4  1  1  0  0  0
  5  6  1  0  0  0
  6  4  1  0  0  0
  7 10  1  0  0  0
 11 12  2  0  0  0
 13 15  2  0  0  0
 14 10  2  0  0  0
 19 24  2  0  0  0
 20 25  2  0  0  0
 21 22  1  0  0  0
 21 18  2  0  0  0
 23 26  1  0  0  0
 17 18  1  0  0  0
  8  7  1  0  0  0
 26 20  1  0  0  0
  7  9  2  0  0  0
 10 11  1  0  0  0
 12 15  1  0  0  0
 13 14  1  0  0  0
 18 24  1  0  0  0
 19 25  1  0  0  0
 20 21  1  0  0  0
 22 23  2  0  0  0
 26 27  1  0  0  0
M  END
> <minimizedAffinity>
-8.13958

$$$$
CHEMBL4285366


 27 31  0  0  0  0  0  0  0  0999 V2000
   11.0407   13.8749  -16.7546 C   0  0  0  0  0  0  0  0  0  0  0  0
   11.3701   13.9518  -18.2565 C   0  0  0  0  0  0  0  0  0  0  0  0
    9.7670   12.1631  -17.9921 C   0  0  0  0  0  0  0  0  0  0  0  0
    9.9497   12.8246  -16.6494 C   0  0  0  0  0  0  0  0  0  0  0  0
    8.7246   13.1085  -15.7929 C   0  0  0  0  0  0  0  0  0  0  0  0
    9.6836   12.0397  -15.3736 C   0  0  0  0  0  0  0  0  0  0  0  0
   10.7554   12.4367  -20.2123 C   0  0  0  0  0  0  0  0  0  0  0  0
   10.6747   12.8390  -18.8967 N   0  0  0  0  0  0  0  0  0  0  0  0
   10.0226   11.5831  -20.7064 O   0  0  0  0  0  0  0  0  0  0  0  0
   11.7540   13.0762  -21.0904 C   0  0  0  0  0  0  0  0  0  0  0  0
   11.5379   14.3879  -21.5037 C   0  0  0  0  0  0  0  0  0  0  0  0
   12.4701   14.9507  -22.3537 C   0  0  0  0  0  0  0  0  0  0  0  0
   13.7234   13.0148  -22.4106 C   0  0  0  0  0  0  0  0  0  0  0  0
   12.8483   12.3586  -21.5668 C   0  0  0  0  0  0  0  0  0  0  0  0
   13.5642   14.2976  -22.8054 N   0  0  0  0  0  0  0  0  0  0  0  0
   13.1436   12.6058  -16.3032 C   0  0  0  0  0  0  0  0  0  0  0  0
   12.2023   13.6254  -15.8783 N   0  0  0  0  0  0  0  0  0  0  0  0
   12.4586   14.4024  -14.7540 C   0  0  0  0  0  0  0  0  0  0  0  0
   11.8253   14.9774  -12.5567 C   0  0  0  0  0  0  0  0  0  0  0  0
   13.5597   16.0475  -13.3951 C   0  0  0  0  0  0  0  0  0  0  0  0
   13.4933   15.3699  -14.6091 C   0  0  0  0  0  0  0  0  0  0  0  0
   14.5716   15.8976  -15.3899 C   0  0  0  0  0  0  0  0  0  0  0  0
   15.2315   16.8520  -14.6441 C   0  0  0  0  0  0  0  0  0  0  0  0
   11.6529   14.2386  -13.6660 N   0  0  0  0  0  0  0  0  0  0  0  0
   12.7609   15.9027  -12.3309 N   0  0  0  0  0  0  0  0  0  0  0  0
   14.6019   16.9312  -13.4334 N   0  0  0  0  0  0  0  0  0  0  0  0
   14.8464   17.5397  -12.6656 H   0  0  0  0  0  0  0  0  0  0  0  0
 16 17  1  0  0  0
  1 17  1  0  0  0
  1  2  1  0  0  0
  2  8  1  0  0  0
  3  8  1  0  0  0
  3  4  1  0  0  0
  4  5  1  0  0  0
  4  1  1  0  0  0
  5  6  1  0  0  0
  6  4  1  0  0  0
  7 10  1  0  0  0
 11 12  2  0  0  0
 13 15  2  0  0  0
 14 10  2  0  0  0
 19 24  2  0  0  0
 20 25  2  0  0  0
 21 22  1  0  0  0
 21 18  2  0  0  0
 23 26  1  0  0  0
 17 18  1  0  0  0
  8  7  1  0  0  0
 26 20  1  0  0  0
  7  9  2  0  0  0
 10 11  1  0  0  0
 12 15  1  0  0  0
 13 14  1  0  0  0
 18 24  1  0  0  0
 19 25  1  0  0  0
 20 21  1  0  0  0
 22 23  2  0  0  0
 26 27  1  0  0  0
M  END
> <minimizedAffinity>
-8.11429

$$$$
CHEMBL4285366


 27 31  0  0  0  0  0  0  0  0999 V2000
   10.7840   14.1752  -16.6423 C   0  0  0  0  0  0  0  0  0  0  0  0
   11.8862   14.8285  -17.4958 C   0  0  0  0  0  0  0  0  0  0  0  0
   10.6163   13.4054  -18.9797 C   0  0  0  0  0  0  0  0  0  0  0  0
    9.9433   13.3869  -17.6305 C   0  0  0  0  0  0  0  0  0  0  0  0
    8.4265   13.4845  -17.5600 C   0  0  0  0  0  0  0  0  0  0  0  0
    9.0969   12.1911  -17.2203 C   0  0  0  0  0  0  0  0  0  0  0  0
   12.6403   14.4263  -19.8975 C   0  0  0  0  0  0  0  0  0  0  0  0
   11.7943   14.2349  -18.8266 N   0  0  0  0  0  0  0  0  0  0  0  0
   12.4077   14.0068  -21.0287 O   0  0  0  0  0  0  0  0  0  0  0  0
   13.8821   15.1965  -19.6926 C   0  0  0  0  0  0  0  0  0  0  0  0
   14.2944   16.0770  -20.6889 C   0  0  0  0  0  0  0  0  0  0  0  0
   15.4786   16.7592  -20.4873 C   0  0  0  0  0  0  0  0  0  0  0  0
   15.8378   15.7224  -18.4581 C   0  0  0  0  0  0  0  0  0  0  0  0
   14.6729   14.9878  -18.5654 C   0  0  0  0  0  0  0  0  0  0  0  0
   16.2521   16.6110  -19.3886 N   0  0  0  0  0  0  0  0  0  0  0  0
   11.9321   12.1208  -15.8071 C   0  0  0  0  0  0  0  0  0  0  0  0
   11.2757   13.3784  -15.5010 N   0  0  0  0  0  0  0  0  0  0  0  0
   11.2236   13.8511  -14.1943 C   0  0  0  0  0  0  0  0  0  0  0  0
   10.0796   13.8534  -12.1324 C   0  0  0  0  0  0  0  0  0  0  0  0
   11.8845   15.1113  -12.2603 C   0  0  0  0  0  0  0  0  0  0  0  0
   12.1350   14.7587  -13.5833 C   0  0  0  0  0  0  0  0  0  0  0  0
   13.3239   15.4725  -13.9406 C   0  0  0  0  0  0  0  0  0  0  0  0
   13.7374   16.2144  -12.8538 C   0  0  0  0  0  0  0  0  0  0  0  0
   10.2075   13.4146  -13.3962 N   0  0  0  0  0  0  0  0  0  0  0  0
   10.8793   14.6993  -11.4785 N   0  0  0  0  0  0  0  0  0  0  0  0
   12.8496   15.9837  -11.8405 N   0  0  0  0  0  0  0  0  0  0  0  0
   12.8764   16.3824  -10.9131 H   0  0  0  0  0  0  0  0  0  0  0  0
 16 17  1  0  0  0
  1 17  1  0  0  0
  1  2  1  0  0  0
  2  8  1  0  0  0
  3  8  1  0  0  0
  3  4  1  0  0  0
  4  5  1  0  0  0
  4  1  1  0  0  0
  5  6  1  0  0  0
  6  4  1  0  0  0
  7 10  1  0  0  0
 11 12  2  0  0  0
 13 15  2  0  0  0
 14 10  2  0  0  0
 19 24  2  0  0  0
 20 25  2  0  0  0
 21 22  1  0  0  0
 21 18  2  0  0  0
 23 26  1  0  0  0
 17 18  1  0  0  0
  8  7  1  0  0  0
 26 20  1  0  0  0
  7  9  2  0  0  0
 10 11  1  0  0  0
 12 15  1  0  0  0
 13 14  1  0  0  0
 18 24  1  0  0  0
 19 25  1  0  0  0
 20 21  1  0  0  0
 22 23  2  0  0  0
 26 27  1  0  0  0
M  END
> <minimizedAffinity>
-8.02444

$$$$
CHEMBL4285366


 27 31  0  0  0  0  0  0  0  0999 V2000
   11.9517   12.9008  -16.9108 C   0  0  0  0  0  0  0  0  0  0  0  0
   12.9751   13.8256  -16.2270 C   0  0  0  0  0  0  0  0  0  0  0  0
   11.3271   13.2617  -14.5520 C   0  0  0  0  0  0  0  0  0  0  0  0
   11.0066   12.4788  -15.8003 C   0  0  0  0  0  0  0  0  0  0  0  0
   10.6158   11.0137  -15.6735 C   0  0  0  0  0  0  0  0  0  0  0  0
    9.5802   12.0201  -16.0639 C   0  0  0  0  0  0  0  0  0  0  0  0
   12.9936   14.9421  -13.9354 C   0  0  0  0  0  0  0  0  0  0  0  0
   12.4736   14.0843  -14.8805 N   0  0  0  0  0  0  0  0  0  0  0  0
   12.5990   14.9895  -12.7727 O   0  0  0  0  0  0  0  0  0  0  0  0
   14.1006   15.8377  -14.3220 C   0  0  0  0  0  0  0  0  0  0  0  0
   14.8391   16.4589  -13.3185 C   0  0  0  0  0  0  0  0  0  0  0  0
   15.8469   17.3196  -13.7080 C   0  0  0  0  0  0  0  0  0  0  0  0
   15.3836   16.9977  -15.9448 C   0  0  0  0  0  0  0  0  0  0  0  0
   14.3509   16.1250  -15.6614 C   0  0  0  0  0  0  0  0  0  0  0  0
   16.1437   17.5923  -14.9984 N   0  0  0  0  0  0  0  0  0  0  0  0
   10.6292   14.7728  -17.9021 C   0  0  0  0  0  0  0  0  0  0  0  0
   11.2760   13.4868  -18.0853 N   0  0  0  0  0  0  0  0  0  0  0  0
   11.3459   12.9015  -19.3448 C   0  0  0  0  0  0  0  0  0  0  0  0
   12.6224   12.5426  -21.2946 C   0  0  0  0  0  0  0  0  0  0  0  0
   10.6052   11.6562  -21.2593 C   0  0  0  0  0  0  0  0  0  0  0  0
   10.3268   12.1398  -19.9842 C   0  0  0  0  0  0  0  0  0  0  0  0
    9.0018   11.6813  -19.6927 C   0  0  0  0  0  0  0  0  0  0  0  0
    8.5361   10.9604  -20.7724 C   0  0  0  0  0  0  0  0  0  0  0  0
   12.4973   13.0565  -20.0591 N   0  0  0  0  0  0  0  0  0  0  0  0
   11.7266   11.8201  -21.9714 N   0  0  0  0  0  0  0  0  0  0  0  0
    9.5239   10.9561  -21.7171 N   0  0  0  0  0  0  0  0  0  0  0  0
    9.4892   10.5124  -22.6235 H   0  0  0  0  0  0  0  0  0  0  0  0
 16 17  1  0  0  0
  1 17  1  0  0  0
  1  2  1  0  0  0
  2  8  1  0  0  0
  3  8  1  0  0  0
  3  4  1  0  0  0
  4  5  1  0  0  0
  4  1  1  0  0  0
  5  6  1  0  0  0
  6  4  1  0  0  0
  7 10  1  0  0  0
 11 12  2  0  0  0
 13 15  2  0  0  0
 14 10  2  0  0  0
 19 24  2  0  0  0
 20 25  2  0  0  0
 21 22  1  0  0  0
 21 18  2  0  0  0
 23 26  1  0  0  0
 17 18  1  0  0  0
  8  7  1  0  0  0
 26 20  1  0  0  0
  7  9  2  0  0  0
 10 11  1  0  0  0
 12 15  1  0  0  0
 13 14  1  0  0  0
 18 24  1  0  0  0
 19 25  1  0  0  0
 20 21  1  0  0  0
 22 23  2  0  0  0
 26 27  1  0  0  0
M  END
> <minimizedAffinity>
-7.73105

$$$$
CHEMBL4285366


 27 31  0  0  0  0  0  0  0  0999 V2000
   11.9595   13.4085  -17.1523 C   0  0  0  0  0  0  0  0  0  0  0  0
   10.9704   12.5320  -17.9420 C   0  0  0  0  0  0  0  0  0  0  0  0
   12.5088   13.4629  -19.5564 C   0  0  0  0  0  0  0  0  0  0  0  0
   12.9722   13.8760  -18.1822 C   0  0  0  0  0  0  0  0  0  0  0  0
   14.4556   13.8067  -17.8508 C   0  0  0  0  0  0  0  0  0  0  0  0
   13.7986   15.1414  -18.0078 C   0  0  0  0  0  0  0  0  0  0  0  0
   10.6029   12.2140  -20.4444 C   0  0  0  0  0  0  0  0  0  0  0  0
   11.2864   12.7115  -19.3560 N   0  0  0  0  0  0  0  0  0  0  0  0
   11.0204   12.2856  -21.5979 O   0  0  0  0  0  0  0  0  0  0  0  0
    9.3123   11.5343  -20.2223 C   0  0  0  0  0  0  0  0  0  0  0  0
    8.5317   11.9207  -19.1362 C   0  0  0  0  0  0  0  0  0  0  0  0
    7.3449   11.2444  -18.9308 C   0  0  0  0  0  0  0  0  0  0  0  0
    7.7119    9.8625  -20.7411 C   0  0  0  0  0  0  0  0  0  0  0  0
    8.9183   10.4704  -21.0299 C   0  0  0  0  0  0  0  0  0  0  0  0
    6.9119   10.2331  -19.7167 N   0  0  0  0  0  0  0  0  0  0  0  0
   10.1619   15.1306  -16.9552 C   0  0  0  0  0  0  0  0  0  0  0  0
   11.3373   14.5026  -16.3808 N   0  0  0  0  0  0  0  0  0  0  0  0
   11.7758   14.8496  -15.1077 C   0  0  0  0  0  0  0  0  0  0  0  0
   13.4068   15.9452  -13.8041 C   0  0  0  0  0  0  0  0  0  0  0  0
   11.7765   14.9463  -12.7086 C   0  0  0  0  0  0  0  0  0  0  0  0
   11.1563   14.5032  -13.8732 C   0  0  0  0  0  0  0  0  0  0  0  0
    9.9994   13.7853  -13.4295 C   0  0  0  0  0  0  0  0  0  0  0  0
    9.9630   13.8144  -12.0509 C   0  0  0  0  0  0  0  0  0  0  0  0
   12.9104   15.5991  -15.0041 N   0  0  0  0  0  0  0  0  0  0  0  0
   12.8991   15.6672  -12.6010 N   0  0  0  0  0  0  0  0  0  0  0  0
   11.0523   14.5240  -11.6287 N   0  0  0  0  0  0  0  0  0  0  0  0
   11.3090   14.7222  -10.6725 H   0  0  0  0  0  0  0  0  0  0  0  0
 16 17  1  0  0  0
  1 17  1  0  0  0
  1  2  1  0  0  0
  2  8  1  0  0  0
  3  8  1  0  0  0
  3  4  1  0  0  0
  4  5  1  0  0  0
  4  1  1  0  0  0
  5  6  1  0  0  0
  6  4  1  0  0  0
  7 10  1  0  0  0
 11 12  2  0  0  0
 13 15  2  0  0  0
 14 10  2  0  0  0
 19 24  2  0  0  0
 20 25  2  0  0  0
 21 22  1  0  0  0
 21 18  2  0  0  0
 23 26  1  0  0  0
 17 18  1  0  0  0
  8  7  1  0  0  0
 26 20  1  0  0  0
  7  9  2  0  0  0
 10 11  1  0  0  0
 12 15  1  0  0  0
 13 14  1  0  0  0
 18 24  1  0  0  0
 19 25  1  0  0  0
 20 21  1  0  0  0
 22 23  2  0  0  0
 26 27  1  0  0  0
M  END
> <minimizedAffinity>
-7.71155

$$$$
CHEMBL4285366


 27 31  0  0  0  0  0  0  0  0999 V2000
   12.3311   15.4035  -15.1757 C   0  0  0  0  0  0  0  0  0  0  0  0
   11.2753   14.6940  -16.0430 C   0  0  0  0  0  0  0  0  0  0  0  0
   10.7376   14.1813  -13.7435 C   0  0  0  0  0  0  0  0  0  0  0  0
   11.8899   15.1540  -13.7447 C   0  0  0  0  0  0  0  0  0  0  0  0
   11.8808   16.3115  -12.7571 C   0  0  0  0  0  0  0  0  0  0  0  0
   12.8538   15.1910  -12.5683 C   0  0  0  0  0  0  0  0  0  0  0  0
    9.4462   13.0160  -15.4626 C   0  0  0  0  0  0  0  0  0  0  0  0
   10.4493   13.9027  -15.1357 N   0  0  0  0  0  0  0  0  0  0  0  0
    8.6977   12.5034  -14.6337 O   0  0  0  0  0  0  0  0  0  0  0  0
    9.2338   12.6762  -16.8825 C   0  0  0  0  0  0  0  0  0  0  0  0
    7.9538   12.8017  -17.4155 C   0  0  0  0  0  0  0  0  0  0  0  0
    7.7752   12.4436  -18.7376 C   0  0  0  0  0  0  0  0  0  0  0  0
    9.9883   11.8345  -18.9676 C   0  0  0  0  0  0  0  0  0  0  0  0
   10.2709   12.1596  -17.6551 C   0  0  0  0  0  0  0  0  0  0  0  0
    8.7666   11.9754  -19.5285 N   0  0  0  0  0  0  0  0  0  0  0  0
   13.9701   13.6094  -15.7511 C   0  0  0  0  0  0  0  0  0  0  0  0
   13.7263   15.0085  -15.4525 N   0  0  0  0  0  0  0  0  0  0  0  0
   14.7536   15.9415  -15.5408 C   0  0  0  0  0  0  0  0  0  0  0  0
   16.0363   17.5861  -14.4408 C   0  0  0  0  0  0  0  0  0  0  0  0
   16.5008   17.2309  -16.5655 C   0  0  0  0  0  0  0  0  0  0  0  0
   15.5261   16.2461  -16.6976 C   0  0  0  0  0  0  0  0  0  0  0  0
   15.6155   15.8135  -18.0598 C   0  0  0  0  0  0  0  0  0  0  0  0
   16.6100   16.5340  -18.6879 C   0  0  0  0  0  0  0  0  0  0  0  0
   15.0742   16.6479  -14.4192 N   0  0  0  0  0  0  0  0  0  0  0  0
   16.8075   17.9391  -15.4719 N   0  0  0  0  0  0  0  0  0  0  0  0
   17.1374   17.3926  -17.7644 N   0  0  0  0  0  0  0  0  0  0  0  0
   17.8832   18.0564  -17.9152 H   0  0  0  0  0  0  0  0  0  0  0  0
 16 17  1  0  0  0
  1 17  1  0  0  0
  1  2  1  0  0  0
  2  8  1  0  0  0
  3  8  1  0  0  0
  3  4  1  0  0  0
  4  5  1  0  0  0
  4  1  1  0  0  0
  5  6  1  0  0  0
  6  4  1  0  0  0
  7 10  1  0  0  0
 11 12  2  0  0  0
 13 15  2  0  0  0
 14 10  2  0  0  0
 19 24  2  0  0  0
 20 25  2  0  0  0
 21 22  1  0  0  0
 21 18  2  0  0  0
 23 26  1  0  0  0
 17 18  1  0  0  0
  8  7  1  0  0  0
 26 20  1  0  0  0
  7  9  2  0  0  0
 10 11  1  0  0  0
 12 15  1  0  0  0
 13 14  1  0  0  0
 18 24  1  0  0  0
 19 25  1  0  0  0
 20 21  1  0  0  0
 22 23  2  0  0  0
 26 27  1  0  0  0
M  END
> <minimizedAffinity>
-7.64508

$$$$
CHEMBL4293188


 29 33  0  0  0  0  0  0  0  0999 V2000
   11.9352   13.4626  -16.4107 C   0  0  0  0  0  0  0  0  0  0  0  0
   11.0931   12.5017  -17.2694 C   0  0  0  0  0  0  0  0  0  0  0  0
   12.5825   13.6454  -18.7805 C   0  0  0  0  0  0  0  0  0  0  0  0
   12.9492   14.0464  -17.3735 C   0  0  0  0  0  0  0  0  0  0  0  0
   13.6883   15.3483  -17.1083 C   0  0  0  0  0  0  0  0  0  0  0  0
   14.4197   14.0496  -16.9791 C   0  0  0  0  0  0  0  0  0  0  0  0
   10.8404   12.2901  -19.8184 C   0  0  0  0  0  0  0  0  0  0  0  0
   11.4115   12.7947  -18.6651 N   0  0  0  0  0  0  0  0  0  0  0  0
   11.3957   12.3819  -20.9141 O   0  0  0  0  0  0  0  0  0  0  0  0
    9.5125   11.6205  -19.7889 C   0  0  0  0  0  0  0  0  0  0  0  0
    8.5001   12.0176  -18.9095 C   0  0  0  0  0  0  0  0  0  0  0  0
    7.2440   11.4104  -18.9524 C   0  0  0  0  0  0  0  0  0  0  0  0
    6.9663   10.4541  -19.9279 C   0  0  0  0  0  0  0  0  0  0  0  0
    7.9446   10.1050  -20.8651 C   0  0  0  0  0  0  0  0  0  0  0  0
    9.2203   10.6758  -20.7854 C   0  0  0  0  0  0  0  0  0  0  0  0
    7.6188    9.1983  -21.9282 C   0  0  0  0  0  0  0  0  0  0  0  0
    7.3597    8.4455  -22.7712 N   0  0  0  0  0  0  0  0  0  0  0  0
   10.4192   15.4466  -16.4247 C   0  0  0  0  0  0  0  0  0  0  0  0
   11.1492   14.4587  -15.6517 N   0  0  0  0  0  0  0  0  0  0  0  0
   11.1344   14.5092  -14.2615 C   0  0  0  0  0  0  0  0  0  0  0  0
   10.0372   13.9064  -12.2639 C   0  0  0  0  0  0  0  0  0  0  0  0
   11.9257   15.0222  -12.0486 C   0  0  0  0  0  0  0  0  0  0  0  0
   12.1155   15.1203  -13.4242 C   0  0  0  0  0  0  0  0  0  0  0  0
   13.3341   15.8590  -13.5770 C   0  0  0  0  0  0  0  0  0  0  0  0
   13.8350   16.1545  -12.3262 C   0  0  0  0  0  0  0  0  0  0  0  0
   10.1026   13.9038  -13.6079 N   0  0  0  0  0  0  0  0  0  0  0  0
   10.9141   14.4305  -11.4027 N   0  0  0  0  0  0  0  0  0  0  0  0
   12.9642   15.6395  -11.4074 N   0  0  0  0  0  0  0  0  0  0  0  0
   13.0487   15.6930  -10.4024 H   0  0  0  0  0  0  0  0  0  0  0  0
 18 19  1  0  0  0
  1 19  1  0  0  0
  1  2  1  0  0  0
  2  8  1  0  0  0
  3  8  1  0  0  0
  3  4  1  0  0  0
  4  5  1  0  0  0
  4  1  1  0  0  0
  5  6  1  0  0  0
  6  4  1  0  0  0
  7 10  1  0  0  0
 11 12  2  0  0  0
 13 14  2  0  0  0
 14 16  1  0  0  0
 15 10  2  0  0  0
 21 26  2  0  0  0
 22 27  2  0  0  0
 23 24  1  0  0  0
 23 20  2  0  0  0
 25 28  1  0  0  0
 19 20  1  0  0  0
  8  7  1  0  0  0
 28 22  1  0  0  0
  7  9  2  0  0  0
 10 11  1  0  0  0
 12 13  1  0  0  0
 14 15  1  0  0  0
 20 26  1  0  0  0
 21 27  1  0  0  0
 22 23  1  0  0  0
 24 25  2  0  0  0
 16 17  3  0  0  0
 28 29  1  0  0  0
M  END
> <minimizedAffinity>
-9.28173

$$$$
CHEMBL4293188


 29 33  0  0  0  0  0  0  0  0999 V2000
   10.6925   13.9578  -18.2803 C   0  0  0  0  0  0  0  0  0  0  0  0
   11.5040   14.7406  -17.2325 C   0  0  0  0  0  0  0  0  0  0  0  0
   13.0962   13.8517  -18.8086 C   0  0  0  0  0  0  0  0  0  0  0  0
   11.7117   13.5454  -19.3230 C   0  0  0  0  0  0  0  0  0  0  0  0
   11.4841   12.3988  -20.2949 C   0  0  0  0  0  0  0  0  0  0  0  0
   11.4080   13.8079  -20.7916 C   0  0  0  0  0  0  0  0  0  0  0  0
   14.0341   14.8611  -16.7961 C   0  0  0  0  0  0  0  0  0  0  0  0
   12.9147   14.4847  -17.5146 N   0  0  0  0  0  0  0  0  0  0  0  0
   15.1611   14.8500  -17.2933 O   0  0  0  0  0  0  0  0  0  0  0  0
   13.9277   15.2868  -15.3749 C   0  0  0  0  0  0  0  0  0  0  0  0
   14.7898   16.2369  -14.8178 C   0  0  0  0  0  0  0  0  0  0  0  0
   14.6213   16.6613  -13.4988 C   0  0  0  0  0  0  0  0  0  0  0  0
   13.5411   16.1959  -12.7506 C   0  0  0  0  0  0  0  0  0  0  0  0
   12.6248   15.3064  -13.3217 C   0  0  0  0  0  0  0  0  0  0  0  0
   12.8270   14.8407  -14.6263 C   0  0  0  0  0  0  0  0  0  0  0  0
   11.4601   14.9135  -12.5818 C   0  0  0  0  0  0  0  0  0  0  0  0
   10.5323   14.5759  -11.9739 N   0  0  0  0  0  0  0  0  0  0  0  0
   10.5965   11.7833  -17.0566 C   0  0  0  0  0  0  0  0  0  0  0  0
    9.8806   12.8519  -17.7291 N   0  0  0  0  0  0  0  0  0  0  0  0
    8.4995   12.7802  -17.8804 C   0  0  0  0  0  0  0  0  0  0  0  0
    6.4000   13.7575  -17.4393 C   0  0  0  0  0  0  0  0  0  0  0  0
    6.3912   11.9188  -18.6545 C   0  0  0  0  0  0  0  0  0  0  0  0
    7.7751   11.7796  -18.5952 C   0  0  0  0  0  0  0  0  0  0  0  0
    8.0577   10.5833  -19.3321 C   0  0  0  0  0  0  0  0  0  0  0  0
    6.8728   10.0678  -19.8148 C   0  0  0  0  0  0  0  0  0  0  0  0
    7.7401   13.7627  -17.3181 N   0  0  0  0  0  0  0  0  0  0  0  0
    5.6416   12.8804  -18.1031 N   0  0  0  0  0  0  0  0  0  0  0  0
    5.8683   10.8920  -19.3914 N   0  0  0  0  0  0  0  0  0  0  0  0
    4.8817   10.7830  -19.5778 H   0  0  0  0  0  0  0  0  0  0  0  0
 18 19  1  0  0  0
  1 19  1  0  0  0
  1  2  1  0  0  0
  2  8  1  0  0  0
  3  8  1  0  0  0
  3  4  1  0  0  0
  4  5  1  0  0  0
  4  1  1  0  0  0
  5  6  1  0  0  0
  6  4  1  0  0  0
  7 10  1  0  0  0
 11 12  2  0  0  0
 13 14  2  0  0  0
 14 16  1  0  0  0
 15 10  2  0  0  0
 21 26  2  0  0  0
 22 27  2  0  0  0
 23 24  1  0  0  0
 23 20  2  0  0  0
 25 28  1  0  0  0
 19 20  1  0  0  0
  8  7  1  0  0  0
 28 22  1  0  0  0
  7  9  2  0  0  0
 10 11  1  0  0  0
 12 13  1  0  0  0
 14 15  1  0  0  0
 20 26  1  0  0  0
 21 27  1  0  0  0
 22 23  1  0  0  0
 24 25  2  0  0  0
 16 17  3  0  0  0
 28 29  1  0  0  0
M  END
> <minimizedAffinity>
-9.20955

$$$$
CHEMBL4293188


 29 33  0  0  0  0  0  0  0  0999 V2000
   12.7602   13.9757  -16.3240 C   0  0  0  0  0  0  0  0  0  0  0  0
   11.8059   13.0523  -17.1026 C   0  0  0  0  0  0  0  0  0  0  0  0
   13.1044   14.2413  -18.7487 C   0  0  0  0  0  0  0  0  0  0  0  0
   13.6506   14.5881  -17.3861 C   0  0  0  0  0  0  0  0  0  0  0  0
   14.4313   15.8747  -17.1707 C   0  0  0  0  0  0  0  0  0  0  0  0
   15.1591   14.5677  -17.1816 C   0  0  0  0  0  0  0  0  0  0  0  0
   11.2304   12.9360  -19.6049 C   0  0  0  0  0  0  0  0  0  0  0  0
   11.9483   13.3943  -18.5161 N   0  0  0  0  0  0  0  0  0  0  0  0
   11.6437   13.0645  -20.7582 O   0  0  0  0  0  0  0  0  0  0  0  0
    9.9098   12.2740  -19.4311 C   0  0  0  0  0  0  0  0  0  0  0  0
    8.9405   12.7699  -18.5532 C   0  0  0  0  0  0  0  0  0  0  0  0
    7.6875   12.1616  -18.4621 C   0  0  0  0  0  0  0  0  0  0  0  0
    7.3669   11.0989  -19.3054 C   0  0  0  0  0  0  0  0  0  0  0  0
    8.2988   10.6441  -20.2444 C   0  0  0  0  0  0  0  0  0  0  0  0
    9.5735   11.2205  -20.2959 C   0  0  0  0  0  0  0  0  0  0  0  0
    7.9254    9.6207  -21.1780 C   0  0  0  0  0  0  0  0  0  0  0  0
    7.6178    8.7779  -21.9125 N   0  0  0  0  0  0  0  0  0  0  0  0
   11.0141   15.7342  -16.0169 C   0  0  0  0  0  0  0  0  0  0  0  0
   12.0874   14.9482  -15.4364 N   0  0  0  0  0  0  0  0  0  0  0  0
   12.4778   15.1644  -14.1188 C   0  0  0  0  0  0  0  0  0  0  0  0
   14.0592   16.1049  -12.6449 C   0  0  0  0  0  0  0  0  0  0  0  0
   12.3247   15.1088  -11.7188 C   0  0  0  0  0  0  0  0  0  0  0  0
   11.7732   14.7550  -12.9470 C   0  0  0  0  0  0  0  0  0  0  0  0
   10.5757   14.0381  -12.6211 C   0  0  0  0  0  0  0  0  0  0  0  0
   10.4377   14.0030  -11.2492 C   0  0  0  0  0  0  0  0  0  0  0  0
   13.6336   15.8520  -13.8961 N   0  0  0  0  0  0  0  0  0  0  0  0
   13.4593   15.7823  -11.4953 N   0  0  0  0  0  0  0  0  0  0  0  0
   11.5121   14.6577  -10.7154 N   0  0  0  0  0  0  0  0  0  0  0  0
   11.7031   14.8002   -9.7340 H   0  0  0  0  0  0  0  0  0  0  0  0
 18 19  1  0  0  0
  1 19  1  0  0  0
  1  2  1  0  0  0
  2  8  1  0  0  0
  3  8  1  0  0  0
  3  4  1  0  0  0
  4  5  1  0  0  0
  4  1  1  0  0  0
  5  6  1  0  0  0
  6  4  1  0  0  0
  7 10  1  0  0  0
 11 12  2  0  0  0
 13 14  2  0  0  0
 14 16  1  0  0  0
 15 10  2  0  0  0
 21 26  2  0  0  0
 22 27  2  0  0  0
 23 24  1  0  0  0
 23 20  2  0  0  0
 25 28  1  0  0  0
 19 20  1  0  0  0
  8  7  1  0  0  0
 28 22  1  0  0  0
  7  9  2  0  0  0
 10 11  1  0  0  0
 12 13  1  0  0  0
 14 15  1  0  0  0
 20 26  1  0  0  0
 21 27  1  0  0  0
 22 23  1  0  0  0
 24 25  2  0  0  0
 16 17  3  0  0  0
 28 29  1  0  0  0
M  END
> <minimizedAffinity>
-9.06825

$$$$
CHEMBL4293188


 29 33  0  0  0  0  0  0  0  0999 V2000
   12.3310   13.7581  -16.0330 C   0  0  0  0  0  0  0  0  0  0  0  0
   11.6562   12.8923  -17.1122 C   0  0  0  0  0  0  0  0  0  0  0  0
   13.3275   14.2136  -18.2394 C   0  0  0  0  0  0  0  0  0  0  0  0
   13.4641   14.4567  -16.7570 C   0  0  0  0  0  0  0  0  0  0  0  0
   14.1186   15.7273  -16.2391 C   0  0  0  0  0  0  0  0  0  0  0  0
   14.8565   14.4295  -16.1419 C   0  0  0  0  0  0  0  0  0  0  0  0
   11.8015   12.9674  -19.6772 C   0  0  0  0  0  0  0  0  0  0  0  0
   12.1760   13.3440  -18.4009 N   0  0  0  0  0  0  0  0  0  0  0  0
   12.5150   13.1877  -20.6569 O   0  0  0  0  0  0  0  0  0  0  0  0
   10.5033   12.2860  -19.9275 C   0  0  0  0  0  0  0  0  0  0  0  0
   10.4007   11.1662  -20.7591 C   0  0  0  0  0  0  0  0  0  0  0  0
    9.1784   10.5119  -20.9212 C   0  0  0  0  0  0  0  0  0  0  0  0
    8.0652   10.9261  -20.1914 C   0  0  0  0  0  0  0  0  0  0  0  0
    8.1733   11.9949  -19.2952 C   0  0  0  0  0  0  0  0  0  0  0  0
    9.3862   12.6834  -19.1756 C   0  0  0  0  0  0  0  0  0  0  0  0
    7.0524   12.3482  -18.4721 C   0  0  0  0  0  0  0  0  0  0  0  0
    6.1350   12.6113  -17.8137 N   0  0  0  0  0  0  0  0  0  0  0  0
   10.7806   15.7152  -16.0634 C   0  0  0  0  0  0  0  0  0  0  0  0
   11.4118   14.6545  -15.2999 N   0  0  0  0  0  0  0  0  0  0  0  0
   11.1848   14.5486  -13.9314 C   0  0  0  0  0  0  0  0  0  0  0  0
    9.7902   13.7528  -12.2054 C   0  0  0  0  0  0  0  0  0  0  0  0
   11.6321   14.7893  -11.5801 C   0  0  0  0  0  0  0  0  0  0  0  0
   12.0309   15.0367  -12.8907 C   0  0  0  0  0  0  0  0  0  0  0  0
   13.2643   15.7569  -12.7716 C   0  0  0  0  0  0  0  0  0  0  0  0
   13.5701   15.8970  -11.4338 C   0  0  0  0  0  0  0  0  0  0  0  0
   10.0605   13.8998  -13.5153 N   0  0  0  0  0  0  0  0  0  0  0  0
   10.5290   14.1544  -11.1670 N   0  0  0  0  0  0  0  0  0  0  0  0
   12.5650   15.3041  -10.7226 N   0  0  0  0  0  0  0  0  0  0  0  0
   12.4951   15.2420   -9.7170 H   0  0  0  0  0  0  0  0  0  0  0  0
 18 19  1  0  0  0
  1 19  1  0  0  0
  1  2  1  0  0  0
  2  8  1  0  0  0
  3  8  1  0  0  0
  3  4  1  0  0  0
  4  5  1  0  0  0
  4  1  1  0  0  0
  5  6  1  0  0  0
  6  4  1  0  0  0
  7 10  1  0  0  0
 11 12  2  0  0  0
 13 14  2  0  0  0
 14 16  1  0  0  0
 15 10  2  0  0  0
 21 26  2  0  0  0
 22 27  2  0  0  0
 23 24  1  0  0  0
 23 20  2  0  0  0
 25 28  1  0  0  0
 19 20  1  0  0  0
  8  7  1  0  0  0
 28 22  1  0  0  0
  7  9  2  0  0  0
 10 11  1  0  0  0
 12 13  1  0  0  0
 14 15  1  0  0  0
 20 26  1  0  0  0
 21 27  1  0  0  0
 22 23  1  0  0  0
 24 25  2  0  0  0
 16 17  3  0  0  0
 28 29  1  0  0  0
M  END
> <minimizedAffinity>
-8.46396

$$$$
CHEMBL4293188


 29 33  0  0  0  0  0  0  0  0999 V2000
   12.4267   13.0298  -17.5348 C   0  0  0  0  0  0  0  0  0  0  0  0
   12.5337   13.3905  -16.0422 C   0  0  0  0  0  0  0  0  0  0  0  0
   10.1904   13.4718  -16.6009 C   0  0  0  0  0  0  0  0  0  0  0  0
   10.9374   12.9496  -17.8027 C   0  0  0  0  0  0  0  0  0  0  0  0
   10.3395   13.0666  -19.1956 C   0  0  0  0  0  0  0  0  0  0  0  0
   10.3858   11.7291  -18.5267 C   0  0  0  0  0  0  0  0  0  0  0  0
   10.7947   14.3308  -14.3996 C   0  0  0  0  0  0  0  0  0  0  0  0
   11.2000   13.8047  -15.6119 N   0  0  0  0  0  0  0  0  0  0  0  0
    9.6103   14.3501  -14.0614 O   0  0  0  0  0  0  0  0  0  0  0  0
   11.7778   14.9140  -13.4479 C   0  0  0  0  0  0  0  0  0  0  0  0
   11.7401   14.6353  -12.0778 C   0  0  0  0  0  0  0  0  0  0  0  0
   12.7167   15.1477  -11.2221 C   0  0  0  0  0  0  0  0  0  0  0  0
   13.7832   15.8794  -11.7421 C   0  0  0  0  0  0  0  0  0  0  0  0
   13.8766   16.0979  -13.1208 C   0  0  0  0  0  0  0  0  0  0  0  0
   12.8671   15.6294  -13.9700 C   0  0  0  0  0  0  0  0  0  0  0  0
   15.0295   16.7612  -13.6586 C   0  0  0  0  0  0  0  0  0  0  0  0
   15.9674   17.2754  -14.1063 N   0  0  0  0  0  0  0  0  0  0  0  0
   13.6995   15.1526  -17.8646 C   0  0  0  0  0  0  0  0  0  0  0  0
   13.1764   13.9270  -18.4398 N   0  0  0  0  0  0  0  0  0  0  0  0
   13.3418   13.6657  -19.7962 C   0  0  0  0  0  0  0  0  0  0  0  0
   13.8461   12.0800  -21.4661 C   0  0  0  0  0  0  0  0  0  0  0  0
   13.3468   14.1115  -22.1600 C   0  0  0  0  0  0  0  0  0  0  0  0
   13.1670   14.5936  -20.8665 C   0  0  0  0  0  0  0  0  0  0  0  0
   12.8331   15.9776  -21.0314 C   0  0  0  0  0  0  0  0  0  0  0  0
   12.8026   16.2702  -22.3790 C   0  0  0  0  0  0  0  0  0  0  0  0
   13.6837   12.4000  -20.1693 N   0  0  0  0  0  0  0  0  0  0  0  0
   13.6837   12.8707  -22.5309 N   0  0  0  0  0  0  0  0  0  0  0  0
   13.1197   15.1236  -23.0515 N   0  0  0  0  0  0  0  0  0  0  0  0
   13.1851   15.0120  -24.0531 H   0  0  0  0  0  0  0  0  0  0  0  0
 18 19  1  0  0  0
  1 19  1  0  0  0
  1  2  1  0  0  0
  2  8  1  0  0  0
  3  8  1  0  0  0
  3  4  1  0  0  0
  4  5  1  0  0  0
  4  1  1  0  0  0
  5  6  1  0  0  0
  6  4  1  0  0  0
  7 10  1  0  0  0
 11 12  2  0  0  0
 13 14  2  0  0  0
 14 16  1  0  0  0
 15 10  2  0  0  0
 21 26  2  0  0  0
 22 27  2  0  0  0
 23 24  1  0  0  0
 23 20  2  0  0  0
 25 28  1  0  0  0
 19 20  1  0  0  0
  8  7  1  0  0  0
 28 22  1  0  0  0
  7  9  2  0  0  0
 10 11  1  0  0  0
 12 13  1  0  0  0
 14 15  1  0  0  0
 20 26  1  0  0  0
 21 27  1  0  0  0
 22 23  1  0  0  0
 24 25  2  0  0  0
 16 17  3  0  0  0
 28 29  1  0  0  0
M  END
> <minimizedAffinity>
-8.34595

$$$$
CHEMBL4293188


 29 33  0  0  0  0  0  0  0  0999 V2000
   12.1145   13.7525  -15.8374 C   0  0  0  0  0  0  0  0  0  0  0  0
   13.4227   14.5189  -15.5711 C   0  0  0  0  0  0  0  0  0  0  0  0
   12.0875   14.7275  -13.5753 C   0  0  0  0  0  0  0  0  0  0  0  0
   11.3763   13.7856  -14.5145 C   0  0  0  0  0  0  0  0  0  0  0  0
    9.8769   13.5630  -14.3975 C   0  0  0  0  0  0  0  0  0  0  0  0
   10.8156   12.4862  -13.9532 C   0  0  0  0  0  0  0  0  0  0  0  0
   14.0937   16.1114  -13.6685 C   0  0  0  0  0  0  0  0  0  0  0  0
   13.2560   15.2058  -14.2922 N   0  0  0  0  0  0  0  0  0  0  0  0
   13.9878   16.3783  -12.4706 O   0  0  0  0  0  0  0  0  0  0  0  0
   15.1602   16.8195  -14.4259 C   0  0  0  0  0  0  0  0  0  0  0  0
   16.2086   17.4866  -13.7841 C   0  0  0  0  0  0  0  0  0  0  0  0
   17.2281   18.0859  -14.5256 C   0  0  0  0  0  0  0  0  0  0  0  0
   17.2481   17.9558  -15.9134 C   0  0  0  0  0  0  0  0  0  0  0  0
   16.2489   17.2228  -16.5626 C   0  0  0  0  0  0  0  0  0  0  0  0
   15.1983   16.6693  -15.8212 C   0  0  0  0  0  0  0  0  0  0  0  0
   16.3331   17.0057  -17.9783 C   0  0  0  0  0  0  0  0  0  0  0  0
   16.4132   16.8075  -19.1179 N   0  0  0  0  0  0  0  0  0  0  0  0
   10.7370   15.5573  -16.8767 C   0  0  0  0  0  0  0  0  0  0  0  0
   11.3396   14.2424  -16.9973 N   0  0  0  0  0  0  0  0  0  0  0  0
   11.1312   13.4809  -18.1428 C   0  0  0  0  0  0  0  0  0  0  0  0
   12.0085   12.6696  -20.1750 C   0  0  0  0  0  0  0  0  0  0  0  0
    9.9709   12.0112  -19.6527 C   0  0  0  0  0  0  0  0  0  0  0  0
    9.9554   12.7396  -18.4665 C   0  0  0  0  0  0  0  0  0  0  0  0
    8.6629   12.4924  -17.8985 C   0  0  0  0  0  0  0  0  0  0  0  0
    7.9708   11.6322  -18.7253 C   0  0  0  0  0  0  0  0  0  0  0  0
   12.1428   13.4002  -19.0530 N   0  0  0  0  0  0  0  0  0  0  0  0
   10.9606   11.9301  -20.5497 N   0  0  0  0  0  0  0  0  0  0  0  0
    8.7809   11.3509  -19.7893 N   0  0  0  0  0  0  0  0  0  0  0  0
    8.5601   10.7519  -20.5719 H   0  0  0  0  0  0  0  0  0  0  0  0
 18 19  1  0  0  0
  1 19  1  0  0  0
  1  2  1  0  0  0
  2  8  1  0  0  0
  3  8  1  0  0  0
  3  4  1  0  0  0
  4  5  1  0  0  0
  4  1  1  0  0  0
  5  6  1  0  0  0
  6  4  1  0  0  0
  7 10  1  0  0  0
 11 12  2  0  0  0
 13 14  2  0  0  0
 14 16  1  0  0  0
 15 10  2  0  0  0
 21 26  2  0  0  0
 22 27  2  0  0  0
 23 24  1  0  0  0
 23 20  2  0  0  0
 25 28  1  0  0  0
 19 20  1  0  0  0
  8  7  1  0  0  0
 28 22  1  0  0  0
  7  9  2  0  0  0
 10 11  1  0  0  0
 12 13  1  0  0  0
 14 15  1  0  0  0
 20 26  1  0  0  0
 21 27  1  0  0  0
 22 23  1  0  0  0
 24 25  2  0  0  0
 16 17  3  0  0  0
 28 29  1  0  0  0
M  END
> <minimizedAffinity>
-8.26208

$$$$
CHEMBL4293188


 29 33  0  0  0  0  0  0  0  0999 V2000
   11.5320   13.9875  -19.7344 C   0  0  0  0  0  0  0  0  0  0  0  0
   12.1587   14.7089  -18.5276 C   0  0  0  0  0  0  0  0  0  0  0  0
   13.9767   13.6848  -19.7340 C   0  0  0  0  0  0  0  0  0  0  0  0
   12.7157   13.4879  -20.5378 C   0  0  0  0  0  0  0  0  0  0  0  0
   12.6119   12.3573  -21.5489 C   0  0  0  0  0  0  0  0  0  0  0  0
   12.7576   13.7649  -22.0343 C   0  0  0  0  0  0  0  0  0  0  0  0
   14.5366   14.6278  -17.5555 C   0  0  0  0  0  0  0  0  0  0  0  0
   13.5719   14.3384  -18.5023 N   0  0  0  0  0  0  0  0  0  0  0  0
   15.7397   14.5228  -17.7984 O   0  0  0  0  0  0  0  0  0  0  0  0
   14.1608   15.0695  -16.1858 C   0  0  0  0  0  0  0  0  0  0  0  0
   14.7853   16.1515  -15.5570 C   0  0  0  0  0  0  0  0  0  0  0  0
   14.3642   16.5800  -14.2971 C   0  0  0  0  0  0  0  0  0  0  0  0
   13.2633   15.9783  -13.6895 C   0  0  0  0  0  0  0  0  0  0  0  0
   12.5790   14.9477  -14.3427 C   0  0  0  0  0  0  0  0  0  0  0  0
   13.0370   14.4837  -15.5815 C   0  0  0  0  0  0  0  0  0  0  0  0
   11.3863   14.4049  -13.7588 C   0  0  0  0  0  0  0  0  0  0  0  0
   10.4158   13.9901  -13.2785 N   0  0  0  0  0  0  0  0  0  0  0  0
   10.0968   12.0741  -20.4516 C   0  0  0  0  0  0  0  0  0  0  0  0
   10.5346   12.9540  -19.3835 N   0  0  0  0  0  0  0  0  0  0  0  0
    9.9798   12.8401  -18.1129 C   0  0  0  0  0  0  0  0  0  0  0  0
    8.1789   13.3493  -16.6792 C   0  0  0  0  0  0  0  0  0  0  0  0
    9.7939   12.1151  -15.8267 C   0  0  0  0  0  0  0  0  0  0  0  0
   10.5366   12.1348  -17.0040 C   0  0  0  0  0  0  0  0  0  0  0  0
   11.7171   11.3777  -16.7084 C   0  0  0  0  0  0  0  0  0  0  0  0
   11.6396   10.9223  -15.4087 C   0  0  0  0  0  0  0  0  0  0  0  0
    8.7743   13.4336  -17.8830 N   0  0  0  0  0  0  0  0  0  0  0  0
    8.6113   12.6973  -15.5960 N   0  0  0  0  0  0  0  0  0  0  0  0
   10.4635   11.3820  -14.8861 N   0  0  0  0  0  0  0  0  0  0  0  0
   10.1172   11.2217  -13.9510 H   0  0  0  0  0  0  0  0  0  0  0  0
 18 19  1  0  0  0
  1 19  1  0  0  0
  1  2  1  0  0  0
  2  8  1  0  0  0
  3  8  1  0  0  0
  3  4  1  0  0  0
  4  5  1  0  0  0
  4  1  1  0  0  0
  5  6  1  0  0  0
  6  4  1  0  0  0
  7 10  1  0  0  0
 11 12  2  0  0  0
 13 14  2  0  0  0
 14 16  1  0  0  0
 15 10  2  0  0  0
 21 26  2  0  0  0
 22 27  2  0  0  0
 23 24  1  0  0  0
 23 20  2  0  0  0
 25 28  1  0  0  0
 19 20  1  0  0  0
  8  7  1  0  0  0
 28 22  1  0  0  0
  7  9  2  0  0  0
 10 11  1  0  0  0
 12 13  1  0  0  0
 14 15  1  0  0  0
 20 26  1  0  0  0
 21 27  1  0  0  0
 22 23  1  0  0  0
 24 25  2  0  0  0
 16 17  3  0  0  0
 28 29  1  0  0  0
M  END
> <minimizedAffinity>
-8.22768

$$$$
CHEMBL4293188


 29 33  0  0  0  0  0  0  0  0999 V2000
   11.1890   13.8454  -17.0664 C   0  0  0  0  0  0  0  0  0  0  0  0
   11.3982   13.9274  -18.5892 C   0  0  0  0  0  0  0  0  0  0  0  0
    9.8449   12.1244  -18.2066 C   0  0  0  0  0  0  0  0  0  0  0  0
   10.1020   12.8053  -16.8854 C   0  0  0  0  0  0  0  0  0  0  0  0
    9.8739   12.0655  -15.5770 C   0  0  0  0  0  0  0  0  0  0  0  0
    8.9123   13.1332  -15.9937 C   0  0  0  0  0  0  0  0  0  0  0  0
   10.6988   12.3348  -20.4815 C   0  0  0  0  0  0  0  0  0  0  0  0
   10.7127   12.7757  -19.1714 N   0  0  0  0  0  0  0  0  0  0  0  0
    9.8486   11.5445  -20.8936 O   0  0  0  0  0  0  0  0  0  0  0  0
   11.7269   12.7886  -21.4559 C   0  0  0  0  0  0  0  0  0  0  0  0
   12.9498   12.1269  -21.6073 C   0  0  0  0  0  0  0  0  0  0  0  0
   13.8655   12.5404  -22.5762 C   0  0  0  0  0  0  0  0  0  0  0  0
   13.5322   13.5710  -23.4539 C   0  0  0  0  0  0  0  0  0  0  0  0
   12.2801   14.1886  -23.3658 C   0  0  0  0  0  0  0  0  0  0  0  0
   11.3856   13.8085  -22.3583 C   0  0  0  0  0  0  0  0  0  0  0  0
   11.9046   15.1754  -24.3371 C   0  0  0  0  0  0  0  0  0  0  0  0
   11.6124   15.9914  -25.1074 N   0  0  0  0  0  0  0  0  0  0  0  0
   13.0767   12.3202  -16.4787 C   0  0  0  0  0  0  0  0  0  0  0  0
   12.4223   13.6016  -16.2882 N   0  0  0  0  0  0  0  0  0  0  0  0
   12.9266   14.5134  -15.3664 C   0  0  0  0  0  0  0  0  0  0  0  0
   14.5493   16.1524  -14.8781 C   0  0  0  0  0  0  0  0  0  0  0  0
   13.0379   15.7721  -13.3195 C   0  0  0  0  0  0  0  0  0  0  0  0
   12.3983   14.7891  -14.0695 C   0  0  0  0  0  0  0  0  0  0  0  0
   11.3243   14.3310  -13.2383 C   0  0  0  0  0  0  0  0  0  0  0  0
   11.3384   15.0462  -12.0589 C   0  0  0  0  0  0  0  0  0  0  0  0
   14.0211   15.2451  -15.7198 N   0  0  0  0  0  0  0  0  0  0  0  0
   14.1130   16.4918  -13.6616 N   0  0  0  0  0  0  0  0  0  0  0  0
   12.3891   15.9177  -12.1243 N   0  0  0  0  0  0  0  0  0  0  0  0
   12.6680   16.5783  -11.4131 H   0  0  0  0  0  0  0  0  0  0  0  0
 18 19  1  0  0  0
  1 19  1  0  0  0
  1  2  1  0  0  0
  2  8  1  0  0  0
  3  8  1  0  0  0
  3  4  1  0  0  0
  4  5  1  0  0  0
  4  1  1  0  0  0
  5  6  1  0  0  0
  6  4  1  0  0  0
  7 10  1  0  0  0
 11 12  2  0  0  0
 13 14  2  0  0  0
 14 16  1  0  0  0
 15 10  2  0  0  0
 21 26  2  0  0  0
 22 27  2  0  0  0
 23 24  1  0  0  0
 23 20  2  0  0  0
 25 28  1  0  0  0
 19 20  1  0  0  0
  8  7  1  0  0  0
 28 22  1  0  0  0
  7  9  2  0  0  0
 10 11  1  0  0  0
 12 13  1  0  0  0
 14 15  1  0  0  0
 20 26  1  0  0  0
 21 27  1  0  0  0
 22 23  1  0  0  0
 24 25  2  0  0  0
 16 17  3  0  0  0
 28 29  1  0  0  0
M  END
> <minimizedAffinity>
-8.13301

$$$$
CHEMBL4293188


 29 33  0  0  0  0  0  0  0  0999 V2000
   11.0596   14.0263  -16.5742 C   0  0  0  0  0  0  0  0  0  0  0  0
   11.2856   14.2136  -18.0853 C   0  0  0  0  0  0  0  0  0  0  0  0
    9.9080   12.2515  -17.8361 C   0  0  0  0  0  0  0  0  0  0  0  0
   10.0755   12.8784  -16.4744 C   0  0  0  0  0  0  0  0  0  0  0  0
    9.8979   12.0476  -15.2136 C   0  0  0  0  0  0  0  0  0  0  0  0
    8.8447   13.0401  -15.5930 C   0  0  0  0  0  0  0  0  0  0  0  0
   10.7760   12.6705  -20.0766 C   0  0  0  0  0  0  0  0  0  0  0  0
   10.7248   13.0362  -18.7445 N   0  0  0  0  0  0  0  0  0  0  0  0
   10.0133   11.8269  -20.5500 O   0  0  0  0  0  0  0  0  0  0  0  0
   11.7716   13.2749  -21.0017 C   0  0  0  0  0  0  0  0  0  0  0  0
   12.8285   12.5348  -21.5415 C   0  0  0  0  0  0  0  0  0  0  0  0
   13.7073   13.1160  -22.4570 C   0  0  0  0  0  0  0  0  0  0  0  0
   13.4895   14.4200  -22.8992 C   0  0  0  0  0  0  0  0  0  0  0  0
   12.3896   15.1448  -22.4281 C   0  0  0  0  0  0  0  0  0  0  0  0
   11.5416   14.5785  -21.4691 C   0  0  0  0  0  0  0  0  0  0  0  0
   12.1133   16.4462  -22.9653 C   0  0  0  0  0  0  0  0  0  0  0  0
   11.8866   17.5068  -23.3752 N   0  0  0  0  0  0  0  0  0  0  0  0
   13.2370   12.8508  -16.2397 C   0  0  0  0  0  0  0  0  0  0  0  0
   12.2973   13.8583  -15.7831 N   0  0  0  0  0  0  0  0  0  0  0  0
   12.5534   14.5760  -14.6192 C   0  0  0  0  0  0  0  0  0  0  0  0
   11.9302   15.0375  -12.3929 C   0  0  0  0  0  0  0  0  0  0  0  0
   13.7185   16.0812  -13.1484 C   0  0  0  0  0  0  0  0  0  0  0  0
   13.6231   15.4971  -14.4084 C   0  0  0  0  0  0  0  0  0  0  0  0
   14.7177   16.0456  -15.1534 C   0  0  0  0  0  0  0  0  0  0  0  0
   15.4281   16.9001  -14.3362 C   0  0  0  0  0  0  0  0  0  0  0  0
   11.7285   14.3831  -13.5512 N   0  0  0  0  0  0  0  0  0  0  0  0
   12.9106   15.8960  -12.0978 N   0  0  0  0  0  0  0  0  0  0  0  0
   14.8050   16.9116  -13.1200 N   0  0  0  0  0  0  0  0  0  0  0  0
   15.0815   17.4434  -12.3072 H   0  0  0  0  0  0  0  0  0  0  0  0
 18 19  1  0  0  0
  1 19  1  0  0  0
  1  2  1  0  0  0
  2  8  1  0  0  0
  3  8  1  0  0  0
  3  4  1  0  0  0
  4  5  1  0  0  0
  4  1  1  0  0  0
  5  6  1  0  0  0
  6  4  1  0  0  0
  7 10  1  0  0  0
 11 12  2  0  0  0
 13 14  2  0  0  0
 14 16  1  0  0  0
 15 10  2  0  0  0
 21 26  2  0  0  0
 22 27  2  0  0  0
 23 24  1  0  0  0
 23 20  2  0  0  0
 25 28  1  0  0  0
 19 20  1  0  0  0
  8  7  1  0  0  0
 28 22  1  0  0  0
  7  9  2  0  0  0
 10 11  1  0  0  0
 12 13  1  0  0  0
 14 15  1  0  0  0
 20 26  1  0  0  0
 21 27  1  0  0  0
 22 23  1  0  0  0
 24 25  2  0  0  0
 16 17  3  0  0  0
 28 29  1  0  0  0
M  END
> <minimizedAffinity>
-8.08586

$$$$
CHEMBL4290647


 27 31  0  0  0  0  0  0  0  0999 V2000
   10.6739   14.0511  -18.1814 C   0  0  0  0  0  0  0  0  0  0  0  0
   11.4681   14.7468  -17.0603 C   0  0  0  0  0  0  0  0  0  0  0  0
   13.0796   14.0661  -18.7257 C   0  0  0  0  0  0  0  0  0  0  0  0
   11.7034   13.7488  -19.2554 C   0  0  0  0  0  0  0  0  0  0  0  0
   11.3790   14.0644  -20.7082 C   0  0  0  0  0  0  0  0  0  0  0  0
   11.5214   12.6384  -20.2795 C   0  0  0  0  0  0  0  0  0  0  0  0
   13.9736   14.9258  -16.6179 C   0  0  0  0  0  0  0  0  0  0  0  0
   12.8814   14.5896  -17.3898 N   0  0  0  0  0  0  0  0  0  0  0  0
   15.1291   14.8971  -17.0381 O   0  0  0  0  0  0  0  0  0  0  0  0
   13.7555   15.3679  -15.2237 C   0  0  0  0  0  0  0  0  0  0  0  0
   14.7058   16.2023  -14.6274 C   0  0  0  0  0  0  0  0  0  0  0  0
   14.5427   16.6000  -13.2999 C   0  0  0  0  0  0  0  0  0  0  0  0
   13.4411   16.1534  -12.5678 C   0  0  0  0  0  0  0  0  0  0  0  0
   12.5071   15.2984  -13.1552 C   0  0  0  0  0  0  0  0  0  0  0  0
   12.6691   14.8945  -14.4809 C   0  0  0  0  0  0  0  0  0  0  0  0
   10.6061   11.8289  -17.0422 C   0  0  0  0  0  0  0  0  0  0  0  0
    9.8920   12.8744  -17.7504 N   0  0  0  0  0  0  0  0  0  0  0  0
    8.5128   12.8057  -17.9142 C   0  0  0  0  0  0  0  0  0  0  0  0
    6.4129   13.7740  -17.4521 C   0  0  0  0  0  0  0  0  0  0  0  0
    6.4039   11.9237  -18.6487 C   0  0  0  0  0  0  0  0  0  0  0  0
    7.7903   11.8018  -18.6197 C   0  0  0  0  0  0  0  0  0  0  0  0
    8.0758   10.6153  -19.3688 C   0  0  0  0  0  0  0  0  0  0  0  0
    6.8861   10.0734  -19.8089 C   0  0  0  0  0  0  0  0  0  0  0  0
    7.7529   13.7884  -17.3532 N   0  0  0  0  0  0  0  0  0  0  0  0
    5.6527   12.8795  -18.0884 N   0  0  0  0  0  0  0  0  0  0  0  0
    5.8791   10.8818  -19.3611 N   0  0  0  0  0  0  0  0  0  0  0  0
    4.8895   10.7551  -19.5164 H   0  0  0  0  0  0  0  0  0  0  0  0
 16 17  1  0  0  0
  1 17  1  0  0  0
  1  2  1  0  0  0
  2  8  1  0  0  0
  3  8  1  0  0  0
  3  4  1  0  0  0
  4  5  1  0  0  0
  4  1  1  0  0  0
  5  6  1  0  0  0
  6  4  1  0  0  0
  7 10  1  0  0  0
 11 12  2  0  0  0
 13 14  2  0  0  0
 15 10  2  0  0  0
 19 24  2  0  0  0
 20 25  2  0  0  0
 21 22  1  0  0  0
 21 18  2  0  0  0
 23 26  1  0  0  0
 17 18  1  0  0  0
  8  7  1  0  0  0
 26 20  1  0  0  0
  7  9  2  0  0  0
 10 11  1  0  0  0
 12 13  1  0  0  0
 14 15  1  0  0  0
 18 24  1  0  0  0
 19 25  1  0  0  0
 20 21  1  0  0  0
 22 23  2  0  0  0
 26 27  1  0  0  0
M  END
> <minimizedAffinity>
-9.24261

$$$$
CHEMBL4290647


 27 31  0  0  0  0  0  0  0  0999 V2000
   11.8842   13.3930  -16.4498 C   0  0  0  0  0  0  0  0  0  0  0  0
   11.0432   12.5356  -17.4139 C   0  0  0  0  0  0  0  0  0  0  0  0
   12.7369   13.6177  -18.7533 C   0  0  0  0  0  0  0  0  0  0  0  0
   13.0028   13.9564  -17.3077 C   0  0  0  0  0  0  0  0  0  0  0  0
   14.4327   13.9147  -16.7890 C   0  0  0  0  0  0  0  0  0  0  0  0
   13.7477   15.2345  -16.9520 C   0  0  0  0  0  0  0  0  0  0  0  0
   10.9851   12.4117  -19.9607 C   0  0  0  0  0  0  0  0  0  0  0  0
   11.5201   12.8320  -18.7612 N   0  0  0  0  0  0  0  0  0  0  0  0
   11.5415   12.5859  -21.0436 O   0  0  0  0  0  0  0  0  0  0  0  0
    9.6926   11.6932  -19.9550 C   0  0  0  0  0  0  0  0  0  0  0  0
    9.4305   10.7744  -20.9758 C   0  0  0  0  0  0  0  0  0  0  0  0
    8.2019   10.1140  -21.0147 C   0  0  0  0  0  0  0  0  0  0  0  0
    7.2344   10.3820  -20.0445 C   0  0  0  0  0  0  0  0  0  0  0  0
    7.4863   11.3195  -19.0415 C   0  0  0  0  0  0  0  0  0  0  0  0
    8.7117   11.9856  -19.0019 C   0  0  0  0  0  0  0  0  0  0  0  0
   10.3202   15.3406  -16.4840 C   0  0  0  0  0  0  0  0  0  0  0  0
   11.1238   14.4173  -15.7054 N   0  0  0  0  0  0  0  0  0  0  0  0
   11.0851   14.4412  -14.3155 C   0  0  0  0  0  0  0  0  0  0  0  0
    9.9292   13.8221  -12.3555 C   0  0  0  0  0  0  0  0  0  0  0  0
   11.7926   14.9660  -12.0819 C   0  0  0  0  0  0  0  0  0  0  0  0
   12.0347   15.0548  -13.4499 C   0  0  0  0  0  0  0  0  0  0  0  0
   13.2586   15.7892  -13.5648 C   0  0  0  0  0  0  0  0  0  0  0  0
   13.6998   16.1140  -12.2989 C   0  0  0  0  0  0  0  0  0  0  0  0
   10.0430   13.8197  -13.6944 N   0  0  0  0  0  0  0  0  0  0  0  0
   10.7642   14.3683  -11.4680 N   0  0  0  0  0  0  0  0  0  0  0  0
   12.7955   15.6060  -11.4088 N   0  0  0  0  0  0  0  0  0  0  0  0
   12.8349   15.6764  -10.4023 H   0  0  0  0  0  0  0  0  0  0  0  0
 16 17  1  0  0  0
  1 17  1  0  0  0
  1  2  1  0  0  0
  2  8  1  0  0  0
  3  8  1  0  0  0
  3  4  1  0  0  0
  4  5  1  0  0  0
  4  1  1  0  0  0
  5  6  1  0  0  0
  6  4  1  0  0  0
  7 10  1  0  0  0
 11 12  2  0  0  0
 13 14  2  0  0  0
 15 10  2  0  0  0
 19 24  2  0  0  0
 20 25  2  0  0  0
 21 22  1  0  0  0
 21 18  2  0  0  0
 23 26  1  0  0  0
 17 18  1  0  0  0
  8  7  1  0  0  0
 26 20  1  0  0  0
  7  9  2  0  0  0
 10 11  1  0  0  0
 12 13  1  0  0  0
 14 15  1  0  0  0
 18 24  1  0  0  0
 19 25  1  0  0  0
 20 21  1  0  0  0
 22 23  2  0  0  0
 26 27  1  0  0  0
M  END
> <minimizedAffinity>
-9.07258

$$$$
CHEMBL4290647


 27 31  0  0  0  0  0  0  0  0999 V2000
   11.0808   13.7162  -17.1163 C   0  0  0  0  0  0  0  0  0  0  0  0
   11.3102   13.5626  -18.6314 C   0  0  0  0  0  0  0  0  0  0  0  0
    9.5503   12.0173  -18.0409 C   0  0  0  0  0  0  0  0  0  0  0  0
    9.8932   12.8210  -16.8114 C   0  0  0  0  0  0  0  0  0  0  0  0
    8.7670   13.3499  -15.9355 C   0  0  0  0  0  0  0  0  0  0  0  0
    9.6342   12.2412  -15.4288 C   0  0  0  0  0  0  0  0  0  0  0  0
   10.4417   11.8523  -20.3124 C   0  0  0  0  0  0  0  0  0  0  0  0
   10.4727   12.4506  -19.0703 N   0  0  0  0  0  0  0  0  0  0  0  0
    9.5967   11.0200  -20.6376 O   0  0  0  0  0  0  0  0  0  0  0  0
   11.4530   12.2408  -21.3190 C   0  0  0  0  0  0  0  0  0  0  0  0
   11.0264   12.5537  -22.6132 C   0  0  0  0  0  0  0  0  0  0  0  0
   11.9654   12.8838  -23.5912 C   0  0  0  0  0  0  0  0  0  0  0  0
   13.3262   12.8872  -23.2794 C   0  0  0  0  0  0  0  0  0  0  0  0
   13.7532   12.5482  -21.9944 C   0  0  0  0  0  0  0  0  0  0  0  0
   12.8178   12.2128  -21.0150 C   0  0  0  0  0  0  0  0  0  0  0  0
   12.9153   12.1600  -16.4432 C   0  0  0  0  0  0  0  0  0  0  0  0
   12.2668   13.4471  -16.2781 N   0  0  0  0  0  0  0  0  0  0  0  0
   12.8130   14.4144  -15.4415 C   0  0  0  0  0  0  0  0  0  0  0  0
   14.4841   16.0488  -15.1301 C   0  0  0  0  0  0  0  0  0  0  0  0
   13.0658   15.7594  -13.4687 C   0  0  0  0  0  0  0  0  0  0  0  0
   12.3600   14.7632  -14.1374 C   0  0  0  0  0  0  0  0  0  0  0  0
   11.3183   14.3747  -13.2349 C   0  0  0  0  0  0  0  0  0  0  0  0
   11.4293   15.1247  -12.0825 C   0  0  0  0  0  0  0  0  0  0  0  0
   13.8913   15.1152  -15.8932 N   0  0  0  0  0  0  0  0  0  0  0  0
   14.1329   16.4409  -13.9029 N   0  0  0  0  0  0  0  0  0  0  0  0
   12.4983   15.9615  -12.2417 N   0  0  0  0  0  0  0  0  0  0  0  0
   12.8407   16.6364  -11.5734 H   0  0  0  0  0  0  0  0  0  0  0  0
 16 17  1  0  0  0
  1 17  1  0  0  0
  1  2  1  0  0  0
  2  8  1  0  0  0
  3  8  1  0  0  0
  3  4  1  0  0  0
  4  5  1  0  0  0
  4  1  1  0  0  0
  5  6  1  0  0  0
  6  4  1  0  0  0
  7 10  1  0  0  0
 11 12  2  0  0  0
 13 14  2  0  0  0
 15 10  2  0  0  0
 19 24  2  0  0  0
 20 25  2  0  0  0
 21 22  1  0  0  0
 21 18  2  0  0  0
 23 26  1  0  0  0
 17 18  1  0  0  0
  8  7  1  0  0  0
 26 20  1  0  0  0
  7  9  2  0  0  0
 10 11  1  0  0  0
 12 13  1  0  0  0
 14 15  1  0  0  0
 18 24  1  0  0  0
 19 25  1  0  0  0
 20 21  1  0  0  0
 22 23  2  0  0  0
 26 27  1  0  0  0
M  END
> <minimizedAffinity>
-8.74637

$$$$
CHEMBL4290647


 27 31  0  0  0  0  0  0  0  0999 V2000
   11.9380   12.8840  -16.8648 C   0  0  0  0  0  0  0  0  0  0  0  0
   12.9500   13.8134  -16.1693 C   0  0  0  0  0  0  0  0  0  0  0  0
   11.3087   13.2120  -14.5025 C   0  0  0  0  0  0  0  0  0  0  0  0
   10.9991   12.4367  -15.7588 C   0  0  0  0  0  0  0  0  0  0  0  0
   10.6266   10.9655  -15.6473 C   0  0  0  0  0  0  0  0  0  0  0  0
    9.5785   11.9628  -16.0279 C   0  0  0  0  0  0  0  0  0  0  0  0
   12.9193   14.9453  -13.8839 C   0  0  0  0  0  0  0  0  0  0  0  0
   12.4323   14.0661  -14.8281 N   0  0  0  0  0  0  0  0  0  0  0  0
   12.5100   14.9828  -12.7248 O   0  0  0  0  0  0  0  0  0  0  0  0
   14.0038   15.8758  -14.2648 C   0  0  0  0  0  0  0  0  0  0  0  0
   14.2754   16.0707  -15.6224 C   0  0  0  0  0  0  0  0  0  0  0  0
   15.3201   16.9124  -16.0058 C   0  0  0  0  0  0  0  0  0  0  0  0
   16.0987   17.5454  -15.0351 C   0  0  0  0  0  0  0  0  0  0  0  0
   15.8444   17.3289  -13.6798 C   0  0  0  0  0  0  0  0  0  0  0  0
   14.8038   16.4841  -13.2922 C   0  0  0  0  0  0  0  0  0  0  0  0
   10.5941   14.7523  -17.8364 C   0  0  0  0  0  0  0  0  0  0  0  0
   11.2528   13.4747  -18.0323 N   0  0  0  0  0  0  0  0  0  0  0  0
   11.3181   12.8966  -19.2955 C   0  0  0  0  0  0  0  0  0  0  0  0
   12.5924   12.5422  -21.2478 C   0  0  0  0  0  0  0  0  0  0  0  0
   10.5728   11.6615  -21.2147 C   0  0  0  0  0  0  0  0  0  0  0  0
   10.2964   12.1405  -19.9373 C   0  0  0  0  0  0  0  0  0  0  0  0
    8.9704   11.6844  -19.6470 C   0  0  0  0  0  0  0  0  0  0  0  0
    8.5020   10.9693  -20.7297 C   0  0  0  0  0  0  0  0  0  0  0  0
   12.4670   13.0541  -20.0117 N   0  0  0  0  0  0  0  0  0  0  0  0
   11.6943   11.8246  -21.9271 N   0  0  0  0  0  0  0  0  0  0  0  0
    9.4896   10.9660  -21.6746 N   0  0  0  0  0  0  0  0  0  0  0  0
    9.4540   10.5261  -22.5828 H   0  0  0  0  0  0  0  0  0  0  0  0
 16 17  1  0  0  0
  1 17  1  0  0  0
  1  2  1  0  0  0
  2  8  1  0  0  0
  3  8  1  0  0  0
  3  4  1  0  0  0
  4  5  1  0  0  0
  4  1  1  0  0  0
  5  6  1  0  0  0
  6  4  1  0  0  0
  7 10  1  0  0  0
 11 12  2  0  0  0
 13 14  2  0  0  0
 15 10  2  0  0  0
 19 24  2  0  0  0
 20 25  2  0  0  0
 21 22  1  0  0  0
 21 18  2  0  0  0
 23 26  1  0  0  0
 17 18  1  0  0  0
  8  7  1  0  0  0
 26 20  1  0  0  0
  7  9  2  0  0  0
 10 11  1  0  0  0
 12 13  1  0  0  0
 14 15  1  0  0  0
 18 24  1  0  0  0
 19 25  1  0  0  0
 20 21  1  0  0  0
 22 23  2  0  0  0
 26 27  1  0  0  0
M  END
> <minimizedAffinity>
-8.44690

$$$$
CHEMBL4290647


 27 31  0  0  0  0  0  0  0  0999 V2000
   11.1922   13.9594  -16.9031 C   0  0  0  0  0  0  0  0  0  0  0  0
   11.4830   14.5858  -18.2796 C   0  0  0  0  0  0  0  0  0  0  0  0
   10.5537   12.3967  -18.7015 C   0  0  0  0  0  0  0  0  0  0  0  0
   10.5026   12.6432  -17.2143 C   0  0  0  0  0  0  0  0  0  0  0  0
    9.2483   12.2588  -16.4433 C   0  0  0  0  0  0  0  0  0  0  0  0
   10.5024   11.4669  -16.2493 C   0  0  0  0  0  0  0  0  0  0  0  0
   11.4557   13.5985  -20.6311 C   0  0  0  0  0  0  0  0  0  0  0  0
   11.2114   13.5530  -19.2746 N   0  0  0  0  0  0  0  0  0  0  0  0
   11.0555   12.7405  -21.4161 O   0  0  0  0  0  0  0  0  0  0  0  0
   12.2126   14.7423  -21.1838 C   0  0  0  0  0  0  0  0  0  0  0  0
   11.6006   15.5500  -22.1471 C   0  0  0  0  0  0  0  0  0  0  0  0
   12.3088   16.6108  -22.7130 C   0  0  0  0  0  0  0  0  0  0  0  0
   13.6282   16.8539  -22.3271 C   0  0  0  0  0  0  0  0  0  0  0  0
   14.2477   16.0306  -21.3853 C   0  0  0  0  0  0  0  0  0  0  0  0
   13.5446   14.9658  -20.8207 C   0  0  0  0  0  0  0  0  0  0  0  0
   13.4903   13.0570  -16.5228 C   0  0  0  0  0  0  0  0  0  0  0  0
   12.3686   13.8272  -16.0198 N   0  0  0  0  0  0  0  0  0  0  0  0
   12.4550   14.4941  -14.8026 C   0  0  0  0  0  0  0  0  0  0  0  0
   13.6495   16.0234  -13.4627 C   0  0  0  0  0  0  0  0  0  0  0  0
   11.8455   15.1282  -12.5685 C   0  0  0  0  0  0  0  0  0  0  0  0
   11.5614   14.3703  -13.7010 C   0  0  0  0  0  0  0  0  0  0  0  0
   10.3658   13.6513  -13.3780 C   0  0  0  0  0  0  0  0  0  0  0  0
    9.9813   13.9861  -12.0963 C   0  0  0  0  0  0  0  0  0  0  0  0
   13.4907   15.3616  -14.6212 N   0  0  0  0  0  0  0  0  0  0  0  0
   12.8683   15.9711  -12.3810 N   0  0  0  0  0  0  0  0  0  0  0  0
   10.8932   14.8852  -11.6185 N   0  0  0  0  0  0  0  0  0  0  0  0
   10.8907   15.3207  -10.7075 H   0  0  0  0  0  0  0  0  0  0  0  0
 16 17  1  0  0  0
  1 17  1  0  0  0
  1  2  1  0  0  0
  2  8  1  0  0  0
  3  8  1  0  0  0
  3  4  1  0  0  0
  4  5  1  0  0  0
  4  1  1  0  0  0
  5  6  1  0  0  0
  6  4  1  0  0  0
  7 10  1  0  0  0
 11 12  2  0  0  0
 13 14  2  0  0  0
 15 10  2  0  0  0
 19 24  2  0  0  0
 20 25  2  0  0  0
 21 22  1  0  0  0
 21 18  2  0  0  0
 23 26  1  0  0  0
 17 18  1  0  0  0
  8  7  1  0  0  0
 26 20  1  0  0  0
  7  9  2  0  0  0
 10 11  1  0  0  0
 12 13  1  0  0  0
 14 15  1  0  0  0
 18 24  1  0  0  0
 19 25  1  0  0  0
 20 21  1  0  0  0
 22 23  2  0  0  0
 26 27  1  0  0  0
M  END
> <minimizedAffinity>
-8.44522

$$$$
CHEMBL4290647


 27 31  0  0  0  0  0  0  0  0999 V2000
   11.0120   13.8949  -16.8898 C   0  0  0  0  0  0  0  0  0  0  0  0
   11.3103   13.9360  -18.4001 C   0  0  0  0  0  0  0  0  0  0  0  0
    9.6487   12.2139  -18.0727 C   0  0  0  0  0  0  0  0  0  0  0  0
    9.8834   12.8899  -16.7449 C   0  0  0  0  0  0  0  0  0  0  0  0
    8.6881   13.2332  -15.8680 C   0  0  0  0  0  0  0  0  0  0  0  0
    9.6152   12.1357  -15.4510 C   0  0  0  0  0  0  0  0  0  0  0  0
   10.6367   12.3782  -20.3039 C   0  0  0  0  0  0  0  0  0  0  0  0
   10.5752   12.8276  -19.0016 N   0  0  0  0  0  0  0  0  0  0  0  0
    9.8690   11.5330  -20.7610 O   0  0  0  0  0  0  0  0  0  0  0  0
   11.6542   12.9510  -21.2112 C   0  0  0  0  0  0  0  0  0  0  0  0
   11.3680   14.1513  -21.8688 C   0  0  0  0  0  0  0  0  0  0  0  0
   12.2956   14.6906  -22.7609 C   0  0  0  0  0  0  0  0  0  0  0  0
   13.4982   14.0248  -23.0046 C   0  0  0  0  0  0  0  0  0  0  0  0
   13.7715   12.8127  -22.3686 C   0  0  0  0  0  0  0  0  0  0  0  0
   12.8445   12.2676  -21.4796 C   0  0  0  0  0  0  0  0  0  0  0  0
   13.0761   12.5541  -16.4626 C   0  0  0  0  0  0  0  0  0  0  0  0
   12.1817   13.6125  -16.0332 N   0  0  0  0  0  0  0  0  0  0  0  0
   12.4840   14.3882  -14.9193 C   0  0  0  0  0  0  0  0  0  0  0  0
   11.9431   14.9558  -12.6953 C   0  0  0  0  0  0  0  0  0  0  0  0
   13.6415   16.0279  -13.6016 C   0  0  0  0  0  0  0  0  0  0  0  0
   13.5243   15.3547  -14.8144 C   0  0  0  0  0  0  0  0  0  0  0  0
   14.5695   15.8847  -15.6374 C   0  0  0  0  0  0  0  0  0  0  0  0
   15.2604   16.8363  -14.9162 C   0  0  0  0  0  0  0  0  0  0  0  0
   11.7226   14.2243  -13.8007 N   0  0  0  0  0  0  0  0  0  0  0  0
   12.8881   15.8798  -12.5052 N   0  0  0  0  0  0  0  0  0  0  0  0
   14.6819   16.9110  -13.6801 N   0  0  0  0  0  0  0  0  0  0  0  0
   14.9582   17.5160  -12.9204 H   0  0  0  0  0  0  0  0  0  0  0  0
 16 17  1  0  0  0
  1 17  1  0  0  0
  1  2  1  0  0  0
  2  8  1  0  0  0
  3  8  1  0  0  0
  3  4  1  0  0  0
  4  5  1  0  0  0
  4  1  1  0  0  0
  5  6  1  0  0  0
  6  4  1  0  0  0
  7 10  1  0  0  0
 11 12  2  0  0  0
 13 14  2  0  0  0
 15 10  2  0  0  0
 19 24  2  0  0  0
 20 25  2  0  0  0
 21 22  1  0  0  0
 21 18  2  0  0  0
 23 26  1  0  0  0
 17 18  1  0  0  0
  8  7  1  0  0  0
 26 20  1  0  0  0
  7  9  2  0  0  0
 10 11  1  0  0  0
 12 13  1  0  0  0
 14 15  1  0  0  0
 18 24  1  0  0  0
 19 25  1  0  0  0
 20 21  1  0  0  0
 22 23  2  0  0  0
 26 27  1  0  0  0
M  END
> <minimizedAffinity>
-8.42601

$$$$
CHEMBL4290647


 27 31  0  0  0  0  0  0  0  0999 V2000
   12.7014   14.1086  -16.2329 C   0  0  0  0  0  0  0  0  0  0  0  0
   11.7069   13.2918  -17.0788 C   0  0  0  0  0  0  0  0  0  0  0  0
   13.2027   14.3787  -18.6327 C   0  0  0  0  0  0  0  0  0  0  0  0
   13.6901   14.6746  -17.2363 C   0  0  0  0  0  0  0  0  0  0  0  0
   15.1805   14.5942  -16.9403 C   0  0  0  0  0  0  0  0  0  0  0  0
   14.5070   15.9297  -16.9673 C   0  0  0  0  0  0  0  0  0  0  0  0
   11.2639   13.2357  -19.5899 C   0  0  0  0  0  0  0  0  0  0  0  0
   11.9821   13.6150  -18.4753 N   0  0  0  0  0  0  0  0  0  0  0  0
   11.6548   13.4285  -20.7399 O   0  0  0  0  0  0  0  0  0  0  0  0
    9.9720   12.5401  -19.4059 C   0  0  0  0  0  0  0  0  0  0  0  0
    9.6514   11.4818  -20.2616 C   0  0  0  0  0  0  0  0  0  0  0  0
    8.4209   10.8363  -20.1339 C   0  0  0  0  0  0  0  0  0  0  0  0
    7.5094   11.2569  -19.1637 C   0  0  0  0  0  0  0  0  0  0  0  0
    7.8189   12.3311  -18.3278 C   0  0  0  0  0  0  0  0  0  0  0  0
    9.0462   12.9824  -18.4555 C   0  0  0  0  0  0  0  0  0  0  0  0
   10.9790   15.8889  -15.9090 C   0  0  0  0  0  0  0  0  0  0  0  0
   12.0835   15.1263  -15.3586 N   0  0  0  0  0  0  0  0  0  0  0  0
   12.4619   15.2841  -14.0297 C   0  0  0  0  0  0  0  0  0  0  0  0
   14.0633   16.1167  -12.5120 C   0  0  0  0  0  0  0  0  0  0  0  0
   12.3237   15.0817  -11.6413 C   0  0  0  0  0  0  0  0  0  0  0  0
   11.7536   14.8219  -12.8843 C   0  0  0  0  0  0  0  0  0  0  0  0
   10.5387   14.1200  -12.5977 C   0  0  0  0  0  0  0  0  0  0  0  0
   10.4214   13.9795  -11.2305 C   0  0  0  0  0  0  0  0  0  0  0  0
   13.6246   15.9468  -13.7707 N   0  0  0  0  0  0  0  0  0  0  0  0
   13.4714   15.7203  -11.3827 N   0  0  0  0  0  0  0  0  0  0  0  0
   11.5165   14.5698  -10.6642 N   0  0  0  0  0  0  0  0  0  0  0  0
   11.7251   14.6338   -9.6784 H   0  0  0  0  0  0  0  0  0  0  0  0
 16 17  1  0  0  0
  1 17  1  0  0  0
  1  2  1  0  0  0
  2  8  1  0  0  0
  3  8  1  0  0  0
  3  4  1  0  0  0
  4  5  1  0  0  0
  4  1  1  0  0  0
  5  6  1  0  0  0
  6  4  1  0  0  0
  7 10  1  0  0  0
 11 12  2  0  0  0
 13 14  2  0  0  0
 15 10  2  0  0  0
 19 24  2  0  0  0
 20 25  2  0  0  0
 21 22  1  0  0  0
 21 18  2  0  0  0
 23 26  1  0  0  0
 17 18  1  0  0  0
  8  7  1  0  0  0
 26 20  1  0  0  0
  7  9  2  0  0  0
 10 11  1  0  0  0
 12 13  1  0  0  0
 14 15  1  0  0  0
 18 24  1  0  0  0
 19 25  1  0  0  0
 20 21  1  0  0  0
 22 23  2  0  0  0
 26 27  1  0  0  0
M  END
> <minimizedAffinity>
-8.40916

$$$$
CHEMBL4290647


 27 31  0  0  0  0  0  0  0  0999 V2000
   11.6560   14.1670  -17.7881 C   0  0  0  0  0  0  0  0  0  0  0  0
   11.9334   14.8094  -16.4162 C   0  0  0  0  0  0  0  0  0  0  0  0
   13.9810   14.9840  -17.6853 C   0  0  0  0  0  0  0  0  0  0  0  0
   12.9226   14.4047  -18.5905 C   0  0  0  0  0  0  0  0  0  0  0  0
   12.8142   14.9119  -20.0211 C   0  0  0  0  0  0  0  0  0  0  0  0
   13.3265   13.5295  -19.7677 C   0  0  0  0  0  0  0  0  0  0  0  0
   14.0967   15.6011  -15.3216 C   0  0  0  0  0  0  0  0  0  0  0  0
   13.3557   15.1362  -16.3877 N   0  0  0  0  0  0  0  0  0  0  0  0
   15.2574   15.9933  -15.4289 O   0  0  0  0  0  0  0  0  0  0  0  0
   13.4680   15.6592  -13.9844 C   0  0  0  0  0  0  0  0  0  0  0  0
   14.1938   16.2112  -12.9245 C   0  0  0  0  0  0  0  0  0  0  0  0
   13.6377   16.2403  -11.6451 C   0  0  0  0  0  0  0  0  0  0  0  0
   12.3666   15.7068  -11.4242 C   0  0  0  0  0  0  0  0  0  0  0  0
   11.6537   15.1313  -12.4773 C   0  0  0  0  0  0  0  0  0  0  0  0
   12.2083   15.0958  -13.7571 C   0  0  0  0  0  0  0  0  0  0  0  0
   11.9751   11.8716  -16.8554 C   0  0  0  0  0  0  0  0  0  0  0  0
   11.2334   12.7526  -17.7375 N   0  0  0  0  0  0  0  0  0  0  0  0
   10.1100   12.2943  -18.4172 C   0  0  0  0  0  0  0  0  0  0  0  0
    7.8227   11.7309  -18.3090 C   0  0  0  0  0  0  0  0  0  0  0  0
    8.8104   11.4742  -20.2620 C   0  0  0  0  0  0  0  0  0  0  0  0
   10.0422   11.9172  -19.7886 C   0  0  0  0  0  0  0  0  0  0  0  0
   10.9206   11.8522  -20.9176 C   0  0  0  0  0  0  0  0  0  0  0  0
   10.2113   11.3814  -22.0030 C   0  0  0  0  0  0  0  0  0  0  0  0
    8.9421   12.1877  -17.7226 N   0  0  0  0  0  0  0  0  0  0  0  0
    7.6644   11.3554  -19.5806 N   0  0  0  0  0  0  0  0  0  0  0  0
    8.9294   11.1558  -21.5860 N   0  0  0  0  0  0  0  0  0  0  0  0
    8.1651   10.8077  -22.1465 H   0  0  0  0  0  0  0  0  0  0  0  0
 16 17  1  0  0  0
  1 17  1  0  0  0
  1  2  1  0  0  0
  2  8  1  0  0  0
  3  8  1  0  0  0
  3  4  1  0  0  0
  4  5  1  0  0  0
  4  1  1  0  0  0
  5  6  1  0  0  0
  6  4  1  0  0  0
  7 10  1  0  0  0
 11 12  2  0  0  0
 13 14  2  0  0  0
 15 10  2  0  0  0
 19 24  2  0  0  0
 20 25  2  0  0  0
 21 22  1  0  0  0
 21 18  2  0  0  0
 23 26  1  0  0  0
 17 18  1  0  0  0
  8  7  1  0  0  0
 26 20  1  0  0  0
  7  9  2  0  0  0
 10 11  1  0  0  0
 12 13  1  0  0  0
 14 15  1  0  0  0
 18 24  1  0  0  0
 19 25  1  0  0  0
 20 21  1  0  0  0
 22 23  2  0  0  0
 26 27  1  0  0  0
M  END
> <minimizedAffinity>
-8.30661

$$$$
CHEMBL4290647


 27 31  0  0  0  0  0  0  0  0999 V2000
   11.0633   14.2505  -18.7316 C   0  0  0  0  0  0  0  0  0  0  0  0
   12.1008   14.9698  -17.8496 C   0  0  0  0  0  0  0  0  0  0  0  0
   13.3459   13.5842  -19.3869 C   0  0  0  0  0  0  0  0  0  0  0  0
   11.8863   13.4887  -19.7549 C   0  0  0  0  0  0  0  0  0  0  0  0
   11.4882   13.5452  -21.2225 C   0  0  0  0  0  0  0  0  0  0  0  0
   11.3642   12.2548  -20.4760 C   0  0  0  0  0  0  0  0  0  0  0  0
   14.6182   14.6517  -17.5915 C   0  0  0  0  0  0  0  0  0  0  0  0
   13.4050   14.4190  -18.2047 N   0  0  0  0  0  0  0  0  0  0  0  0
   15.6903   14.2628  -18.0517 O   0  0  0  0  0  0  0  0  0  0  0  0
   14.6464   15.4268  -16.3324 C   0  0  0  0  0  0  0  0  0  0  0  0
   15.4954   16.5342  -16.2446 C   0  0  0  0  0  0  0  0  0  0  0  0
   15.5697   17.2573  -15.0535 C   0  0  0  0  0  0  0  0  0  0  0  0
   14.8086   16.8656  -13.9506 C   0  0  0  0  0  0  0  0  0  0  0  0
   13.9819   15.7437  -14.0303 C   0  0  0  0  0  0  0  0  0  0  0  0
   13.9085   15.0152  -15.2180 C   0  0  0  0  0  0  0  0  0  0  0  0
    8.7706   13.2721  -18.5679 C   0  0  0  0  0  0  0  0  0  0  0  0
   10.0958   13.4125  -17.9945 N   0  0  0  0  0  0  0  0  0  0  0  0
   10.4561   12.6975  -16.8575 C   0  0  0  0  0  0  0  0  0  0  0  0
   11.1161   10.6242  -15.9482 C   0  0  0  0  0  0  0  0  0  0  0  0
   10.9025   12.2990  -14.5323 C   0  0  0  0  0  0  0  0  0  0  0  0
   10.5273   13.1982  -15.5265 C   0  0  0  0  0  0  0  0  0  0  0  0
   10.3179   14.4405  -14.8457 C   0  0  0  0  0  0  0  0  0  0  0  0
   10.5622   14.2542  -13.5009 C   0  0  0  0  0  0  0  0  0  0  0  0
   10.7802   11.3819  -17.0059 N   0  0  0  0  0  0  0  0  0  0  0  0
   11.2089   11.0034  -14.6713 N   0  0  0  0  0  0  0  0  0  0  0  0
   10.9161   12.9454  -13.3279 N   0  0  0  0  0  0  0  0  0  0  0  0
   11.1562   12.4955  -12.4564 H   0  0  0  0  0  0  0  0  0  0  0  0
 16 17  1  0  0  0
  1 17  1  0  0  0
  1  2  1  0  0  0
  2  8  1  0  0  0
  3  8  1  0  0  0
  3  4  1  0  0  0
  4  5  1  0  0  0
  4  1  1  0  0  0
  5  6  1  0  0  0
  6  4  1  0  0  0
  7 10  1  0  0  0
 11 12  2  0  0  0
 13 14  2  0  0  0
 15 10  2  0  0  0
 19 24  2  0  0  0
 20 25  2  0  0  0
 21 22  1  0  0  0
 21 18  2  0  0  0
 23 26  1  0  0  0
 17 18  1  0  0  0
  8  7  1  0  0  0
 26 20  1  0  0  0
  7  9  2  0  0  0
 10 11  1  0  0  0
 12 13  1  0  0  0
 14 15  1  0  0  0
 18 24  1  0  0  0
 19 25  1  0  0  0
 20 21  1  0  0  0
 22 23  2  0  0  0
 26 27  1  0  0  0
M  END
> <minimizedAffinity>
-8.21447

$$$$
CHEMBL4292627


 29 33  0  0  0  0  0  0  0  0999 V2000
   12.6463   13.9578  -15.9727 C   0  0  0  0  0  0  0  0  0  0  0  0
   12.2827   13.1090  -17.2035 C   0  0  0  0  0  0  0  0  0  0  0  0
   13.8898   14.7430  -17.9495 C   0  0  0  0  0  0  0  0  0  0  0  0
   13.7592   14.8678  -16.4514 C   0  0  0  0  0  0  0  0  0  0  0  0
   15.0266   14.9796  -15.6155 C   0  0  0  0  0  0  0  0  0  0  0  0
   14.1246   16.1657  -15.7489 C   0  0  0  0  0  0  0  0  0  0  0  0
   12.7878   13.4428  -19.6984 C   0  0  0  0  0  0  0  0  0  0  0  0
   12.9144   13.7474  -18.3559 N   0  0  0  0  0  0  0  0  0  0  0  0
   13.5948   13.8426  -20.5385 O   0  0  0  0  0  0  0  0  0  0  0  0
   11.6490   12.6193  -20.1861 C   0  0  0  0  0  0  0  0  0  0  0  0
   11.6137   12.2556  -21.5404 C   0  0  0  0  0  0  0  0  0  0  0  0
   10.5176   11.5554  -22.0589 C   0  0  0  0  0  0  0  0  0  0  0  0
    9.4497   11.2092  -21.2247 C   0  0  0  0  0  0  0  0  0  0  0  0
    9.4698   11.5931  -19.8807 C   0  0  0  0  0  0  0  0  0  0  0  0
   10.5496   12.3228  -19.3745 C   0  0  0  0  0  0  0  0  0  0  0  0
    8.3228   10.4900  -21.7453 C   0  0  0  0  0  0  0  0  0  0  0  0
    7.4072    9.9085  -22.1550 N   0  0  0  0  0  0  0  0  0  0  0  0
   10.7411   15.5571  -16.1811 C   0  0  0  0  0  0  0  0  0  0  0  0
   11.5044   14.6524  -15.3412 N   0  0  0  0  0  0  0  0  0  0  0  0
   11.1609   14.4815  -14.0041 C   0  0  0  0  0  0  0  0  0  0  0  0
    9.6456   13.5733  -12.4428 C   0  0  0  0  0  0  0  0  0  0  0  0
   11.3883   14.6385  -11.6145 C   0  0  0  0  0  0  0  0  0  0  0  0
   11.8930   14.9528  -12.8732 C   0  0  0  0  0  0  0  0  0  0  0  0
   13.0848   15.7060  -12.6157 C   0  0  0  0  0  0  0  0  0  0  0  0
   13.2658   15.7990  -11.2515 C   0  0  0  0  0  0  0  0  0  0  0  0
   10.0274   13.7808  -13.7162 N   0  0  0  0  0  0  0  0  0  0  0  0
   10.2749   13.9538  -11.3273 N   0  0  0  0  0  0  0  0  0  0  0  0
   12.2238   15.1444  -10.6571 N   0  0  0  0  0  0  0  0  0  0  0  0
   12.0684   15.0364   -9.6651 H   0  0  0  0  0  0  0  0  0  0  0  0
 18 19  1  0  0  0
  1 19  1  0  0  0
  1  2  1  0  0  0
  2  8  1  0  0  0
  3  8  1  0  0  0
  3  4  1  0  0  0
  4  5  1  0  0  0
  4  1  1  0  0  0
  5  6  1  0  0  0
  6  4  1  0  0  0
  7 10  1  0  0  0
 11 12  2  0  0  0
 13 14  2  0  0  0
 13 16  1  0  0  0
 15 10  2  0  0  0
 21 26  2  0  0  0
 22 27  2  0  0  0
 23 24  1  0  0  0
 23 20  2  0  0  0
 25 28  1  0  0  0
 19 20  1  0  0  0
  8  7  1  0  0  0
 28 22  1  0  0  0
  7  9  2  0  0  0
 10 11  1  0  0  0
 12 13  1  0  0  0
 14 15  1  0  0  0
 20 26  1  0  0  0
 21 27  1  0  0  0
 22 23  1  0  0  0
 24 25  2  0  0  0
 16 17  3  0  0  0
 28 29  1  0  0  0
M  END
> <minimizedAffinity>
-8.70821

$$$$
CHEMBL4292627


 29 33  0  0  0  0  0  0  0  0999 V2000
   10.9818   13.8001  -17.0084 C   0  0  0  0  0  0  0  0  0  0  0  0
   11.1143   13.6518  -18.5342 C   0  0  0  0  0  0  0  0  0  0  0  0
    9.4045   12.1007  -17.8418 C   0  0  0  0  0  0  0  0  0  0  0  0
    9.8038   12.9212  -16.6401 C   0  0  0  0  0  0  0  0  0  0  0  0
    8.7085   13.4958  -15.7527 C   0  0  0  0  0  0  0  0  0  0  0  0
    9.5756   12.3930  -15.2328 C   0  0  0  0  0  0  0  0  0  0  0  0
   10.1683   11.8976  -20.1524 C   0  0  0  0  0  0  0  0  0  0  0  0
   10.2871   12.5108  -18.9191 N   0  0  0  0  0  0  0  0  0  0  0  0
    9.2243   11.1552  -20.4253 O   0  0  0  0  0  0  0  0  0  0  0  0
   11.1976   12.1054  -21.2061 C   0  0  0  0  0  0  0  0  0  0  0  0
   10.8274   11.9419  -22.5492 C   0  0  0  0  0  0  0  0  0  0  0  0
   11.7843   12.0430  -23.5665 C   0  0  0  0  0  0  0  0  0  0  0  0
   13.1190   12.3135  -23.2479 C   0  0  0  0  0  0  0  0  0  0  0  0
   13.4959   12.4509  -21.9088 C   0  0  0  0  0  0  0  0  0  0  0  0
   12.5445   12.3144  -20.8935 C   0  0  0  0  0  0  0  0  0  0  0  0
   14.1069   12.4212  -24.2826 C   0  0  0  0  0  0  0  0  0  0  0  0
   14.9118   12.4997  -25.1135 N   0  0  0  0  0  0  0  0  0  0  0  0
   12.8076   12.2086  -16.4049 C   0  0  0  0  0  0  0  0  0  0  0  0
   12.2212   13.5273  -16.2506 N   0  0  0  0  0  0  0  0  0  0  0  0
   12.8141   14.4624  -15.4085 C   0  0  0  0  0  0  0  0  0  0  0  0
   14.5076   16.0755  -15.1105 C   0  0  0  0  0  0  0  0  0  0  0  0
   13.1094   15.7979  -13.4296 C   0  0  0  0  0  0  0  0  0  0  0  0
   12.3926   14.8025  -14.0880 C   0  0  0  0  0  0  0  0  0  0  0  0
   11.3749   14.4054  -13.1605 C   0  0  0  0  0  0  0  0  0  0  0  0
   11.4941   15.1670  -12.0167 C   0  0  0  0  0  0  0  0  0  0  0  0
   13.8950   15.1514  -15.8729 N   0  0  0  0  0  0  0  0  0  0  0  0
   14.1724   16.4744  -13.8803 N   0  0  0  0  0  0  0  0  0  0  0  0
   12.5553   16.0089  -12.1971 N   0  0  0  0  0  0  0  0  0  0  0  0
   12.9007   16.6915  -11.5378 H   0  0  0  0  0  0  0  0  0  0  0  0
 18 19  1  0  0  0
  1 19  1  0  0  0
  1  2  1  0  0  0
  2  8  1  0  0  0
  3  8  1  0  0  0
  3  4  1  0  0  0
  4  5  1  0  0  0
  4  1  1  0  0  0
  5  6  1  0  0  0
  6  4  1  0  0  0
  7 10  1  0  0  0
 11 12  2  0  0  0
 13 14  2  0  0  0
 13 16  1  0  0  0
 15 10  2  0  0  0
 21 26  2  0  0  0
 22 27  2  0  0  0
 23 24  1  0  0  0
 23 20  2  0  0  0
 25 28  1  0  0  0
 19 20  1  0  0  0
  8  7  1  0  0  0
 28 22  1  0  0  0
  7  9  2  0  0  0
 10 11  1  0  0  0
 12 13  1  0  0  0
 14 15  1  0  0  0
 20 26  1  0  0  0
 21 27  1  0  0  0
 22 23  1  0  0  0
 24 25  2  0  0  0
 16 17  3  0  0  0
 28 29  1  0  0  0
M  END
> <minimizedAffinity>
-8.66428

$$$$
CHEMBL4292627


 29 33  0  0  0  0  0  0  0  0999 V2000
   12.1770   13.4070  -16.2487 C   0  0  0  0  0  0  0  0  0  0  0  0
   13.3992   14.2032  -15.7588 C   0  0  0  0  0  0  0  0  0  0  0  0
   11.8121   14.2008  -13.9449 C   0  0  0  0  0  0  0  0  0  0  0  0
   11.2753   13.3064  -15.0352 C   0  0  0  0  0  0  0  0  0  0  0  0
   10.7112   11.9457  -14.6507 C   0  0  0  0  0  0  0  0  0  0  0  0
    9.7860   13.0172  -15.1347 C   0  0  0  0  0  0  0  0  0  0  0  0
   13.7355   15.6835  -13.6885 C   0  0  0  0  0  0  0  0  0  0  0  0
   13.0322   14.7864  -14.4706 N   0  0  0  0  0  0  0  0  0  0  0  0
   13.4715   15.8607  -12.4987 O   0  0  0  0  0  0  0  0  0  0  0  0
   14.8450   16.4882  -14.2669 C   0  0  0  0  0  0  0  0  0  0  0  0
   15.7812   17.0659  -13.3966 C   0  0  0  0  0  0  0  0  0  0  0  0
   16.7898   17.9012  -13.8922 C   0  0  0  0  0  0  0  0  0  0  0  0
   16.8725   18.1612  -15.2640 C   0  0  0  0  0  0  0  0  0  0  0  0
   15.9254   17.6082  -16.1307 C   0  0  0  0  0  0  0  0  0  0  0  0
   14.8986   16.8032  -15.6282 C   0  0  0  0  0  0  0  0  0  0  0  0
   17.9032   19.0138  -15.7824 C   0  0  0  0  0  0  0  0  0  0  0  0
   18.7303   19.7125  -16.1973 N   0  0  0  0  0  0  0  0  0  0  0  0
   11.0715   15.3277  -17.3974 C   0  0  0  0  0  0  0  0  0  0  0  0
   11.5291   13.9518  -17.4605 N   0  0  0  0  0  0  0  0  0  0  0  0
   11.3374   13.2030  -18.6171 C   0  0  0  0  0  0  0  0  0  0  0  0
   12.2490   12.4000  -20.6377 C   0  0  0  0  0  0  0  0  0  0  0  0
   10.1918   11.7642  -20.1675 C   0  0  0  0  0  0  0  0  0  0  0  0
   10.1589   12.4820  -18.9752 C   0  0  0  0  0  0  0  0  0  0  0  0
    8.8504   12.2482  -18.4394 C   0  0  0  0  0  0  0  0  0  0  0  0
    8.1661   11.4046  -19.2894 C   0  0  0  0  0  0  0  0  0  0  0  0
   12.3684   13.1161  -19.5048 N   0  0  0  0  0  0  0  0  0  0  0  0
   11.2002   11.6785  -21.0431 N   0  0  0  0  0  0  0  0  0  0  0  0
    8.9970   11.1204  -20.3366 N   0  0  0  0  0  0  0  0  0  0  0  0
    8.7867   10.5298  -21.1283 H   0  0  0  0  0  0  0  0  0  0  0  0
 18 19  1  0  0  0
  1 19  1  0  0  0
  1  2  1  0  0  0
  2  8  1  0  0  0
  3  8  1  0  0  0
  3  4  1  0  0  0
  4  5  1  0  0  0
  4  1  1  0  0  0
  5  6  1  0  0  0
  6  4  1  0  0  0
  7 10  1  0  0  0
 11 12  2  0  0  0
 13 14  2  0  0  0
 13 16  1  0  0  0
 15 10  2  0  0  0
 21 26  2  0  0  0
 22 27  2  0  0  0
 23 24  1  0  0  0
 23 20  2  0  0  0
 25 28  1  0  0  0
 19 20  1  0  0  0
  8  7  1  0  0  0
 28 22  1  0  0  0
  7  9  2  0  0  0
 10 11  1  0  0  0
 12 13  1  0  0  0
 14 15  1  0  0  0
 20 26  1  0  0  0
 21 27  1  0  0  0
 22 23  1  0  0  0
 24 25  2  0  0  0
 16 17  3  0  0  0
 28 29  1  0  0  0
M  END
> <minimizedAffinity>
-8.66213

$$$$
CHEMBL4292627


 29 33  0  0  0  0  0  0  0  0999 V2000
   10.7550   14.1543  -16.6201 C   0  0  0  0  0  0  0  0  0  0  0  0
   11.7868   14.9085  -17.4770 C   0  0  0  0  0  0  0  0  0  0  0  0
   10.7001   13.3337  -18.9427 C   0  0  0  0  0  0  0  0  0  0  0  0
   10.0002   13.2867  -17.6067 C   0  0  0  0  0  0  0  0  0  0  0  0
    8.4782   13.2987  -17.5799 C   0  0  0  0  0  0  0  0  0  0  0  0
    9.2126   12.0551  -17.1893 C   0  0  0  0  0  0  0  0  0  0  0  0
   12.6666   14.4641  -19.8475 C   0  0  0  0  0  0  0  0  0  0  0  0
   11.8187   14.2445  -18.7780 N   0  0  0  0  0  0  0  0  0  0  0  0
   12.4035   14.0661  -20.9829 O   0  0  0  0  0  0  0  0  0  0  0  0
   13.9522   15.1890  -19.6610 C   0  0  0  0  0  0  0  0  0  0  0  0
   14.6602   15.0052  -18.4642 C   0  0  0  0  0  0  0  0  0  0  0  0
   15.8290   15.7338  -18.2119 C   0  0  0  0  0  0  0  0  0  0  0  0
   16.3014   16.6491  -19.1581 C   0  0  0  0  0  0  0  0  0  0  0  0
   15.5839   16.8538  -20.3401 C   0  0  0  0  0  0  0  0  0  0  0  0
   14.3983   16.1505  -20.5732 C   0  0  0  0  0  0  0  0  0  0  0  0
   17.4990   17.3992  -18.9105 C   0  0  0  0  0  0  0  0  0  0  0  0
   18.4707   17.9969  -18.7031 N   0  0  0  0  0  0  0  0  0  0  0  0
   11.9829   12.1672  -15.7401 C   0  0  0  0  0  0  0  0  0  0  0  0
   11.3228   13.4298  -15.4635 N   0  0  0  0  0  0  0  0  0  0  0  0
   11.2319   13.9004  -14.1576 C   0  0  0  0  0  0  0  0  0  0  0  0
   10.0528   13.8790  -12.1160 C   0  0  0  0  0  0  0  0  0  0  0  0
   11.8815   15.1076  -12.1810 C   0  0  0  0  0  0  0  0  0  0  0  0
   12.1405   14.7914  -13.5117 C   0  0  0  0  0  0  0  0  0  0  0  0
   13.3346   15.5140  -13.8372 C   0  0  0  0  0  0  0  0  0  0  0  0
   13.7557   16.2035  -12.7193 C   0  0  0  0  0  0  0  0  0  0  0  0
   10.1918   13.4678  -13.3896 N   0  0  0  0  0  0  0  0  0  0  0  0
   10.8605   14.6879  -11.4244 N   0  0  0  0  0  0  0  0  0  0  0  0
   12.8594   15.9455  -11.7204 N   0  0  0  0  0  0  0  0  0  0  0  0
   12.8891   16.3060  -10.7775 H   0  0  0  0  0  0  0  0  0  0  0  0
 18 19  1  0  0  0
  1 19  1  0  0  0
  1  2  1  0  0  0
  2  8  1  0  0  0
  3  8  1  0  0  0
  3  4  1  0  0  0
  4  5  1  0  0  0
  4  1  1  0  0  0
  5  6  1  0  0  0
  6  4  1  0  0  0
  7 10  1  0  0  0
 11 12  2  0  0  0
 13 14  2  0  0  0
 13 16  1  0  0  0
 15 10  2  0  0  0
 21 26  2  0  0  0
 22 27  2  0  0  0
 23 24  1  0  0  0
 23 20  2  0  0  0
 25 28  1  0  0  0
 19 20  1  0  0  0
  8  7  1  0  0  0
 28 22  1  0  0  0
  7  9  2  0  0  0
 10 11  1  0  0  0
 12 13  1  0  0  0
 14 15  1  0  0  0
 20 26  1  0  0  0
 21 27  1  0  0  0
 22 23  1  0  0  0
 24 25  2  0  0  0
 16 17  3  0  0  0
 28 29  1  0  0  0
M  END
> <minimizedAffinity>
-8.55501

$$$$
CHEMBL4292627


 29 33  0  0  0  0  0  0  0  0999 V2000
   11.9787   12.8925  -16.9625 C   0  0  0  0  0  0  0  0  0  0  0  0
   13.0955   13.6810  -16.2562 C   0  0  0  0  0  0  0  0  0  0  0  0
   11.3066   13.4478  -14.6580 C   0  0  0  0  0  0  0  0  0  0  0  0
   10.9453   12.6438  -15.8827 C   0  0  0  0  0  0  0  0  0  0  0  0
   10.4041   11.2333  -15.6957 C   0  0  0  0  0  0  0  0  0  0  0  0
    9.4935   12.3127  -16.1896 C   0  0  0  0  0  0  0  0  0  0  0  0
   13.1143   14.9666  -14.0341 C   0  0  0  0  0  0  0  0  0  0  0  0
   12.5515   14.1243  -14.9749 N   0  0  0  0  0  0  0  0  0  0  0  0
   12.7032   15.0191  -12.8744 O   0  0  0  0  0  0  0  0  0  0  0  0
   14.2455   15.8620  -14.3967 C   0  0  0  0  0  0  0  0  0  0  0  0
   14.9830   16.4644  -13.3667 C   0  0  0  0  0  0  0  0  0  0  0  0
   15.9992   17.3808  -13.6637 C   0  0  0  0  0  0  0  0  0  0  0  0
   16.2888   17.6982  -14.9947 C   0  0  0  0  0  0  0  0  0  0  0  0
   15.5383   17.1196  -16.0223 C   0  0  0  0  0  0  0  0  0  0  0  0
   14.5011   16.2319  -15.7208 C   0  0  0  0  0  0  0  0  0  0  0  0
   17.3293   18.6341  -15.3101 C   0  0  0  0  0  0  0  0  0  0  0  0
   18.1621   19.3993  -15.5659 N   0  0  0  0  0  0  0  0  0  0  0  0
   11.1909   14.9539  -18.1291 C   0  0  0  0  0  0  0  0  0  0  0  0
   11.4542   13.5279  -18.1897 N   0  0  0  0  0  0  0  0  0  0  0  0
   11.1988   12.8184  -19.3587 C   0  0  0  0  0  0  0  0  0  0  0  0
    9.7703   11.3402  -20.5134 C   0  0  0  0  0  0  0  0  0  0  0  0
   11.5307   12.0701  -21.6206 C   0  0  0  0  0  0  0  0  0  0  0  0
   11.9891   12.8285  -20.5470 C   0  0  0  0  0  0  0  0  0  0  0  0
   13.2034   13.4308  -21.0123 C   0  0  0  0  0  0  0  0  0  0  0  0
   13.4187   13.0453  -22.3190 C   0  0  0  0  0  0  0  0  0  0  0  0
   10.0780   12.0438  -19.4085 N   0  0  0  0  0  0  0  0  0  0  0  0
   10.4332   11.3062  -21.6729 N   0  0  0  0  0  0  0  0  0  0  0  0
   12.3915   12.2165  -22.6733 N   0  0  0  0  0  0  0  0  0  0  0  0
   12.2631   11.7660  -23.5679 H   0  0  0  0  0  0  0  0  0  0  0  0
 18 19  1  0  0  0
  1 19  1  0  0  0
  1  2  1  0  0  0
  2  8  1  0  0  0
  3  8  1  0  0  0
  3  4  1  0  0  0
  4  5  1  0  0  0
  4  1  1  0  0  0
  5  6  1  0  0  0
  6  4  1  0  0  0
  7 10  1  0  0  0
 11 12  2  0  0  0
 13 14  2  0  0  0
 13 16  1  0  0  0
 15 10  2  0  0  0
 21 26  2  0  0  0
 22 27  2  0  0  0
 23 24  1  0  0  0
 23 20  2  0  0  0
 25 28  1  0  0  0
 19 20  1  0  0  0
  8  7  1  0  0  0
 28 22  1  0  0  0
  7  9  2  0  0  0
 10 11  1  0  0  0
 12 13  1  0  0  0
 14 15  1  0  0  0
 20 26  1  0  0  0
 21 27  1  0  0  0
 22 23  1  0  0  0
 24 25  2  0  0  0
 16 17  3  0  0  0
 28 29  1  0  0  0
M  END
> <minimizedAffinity>
-8.49360

$$$$
CHEMBL4292627


 29 33  0  0  0  0  0  0  0  0999 V2000
   12.2802   15.4716  -15.3194 C   0  0  0  0  0  0  0  0  0  0  0  0
   11.2222   14.8488  -16.2470 C   0  0  0  0  0  0  0  0  0  0  0  0
   10.6764   14.1353  -14.0105 C   0  0  0  0  0  0  0  0  0  0  0  0
   11.8156   15.1208  -13.9204 C   0  0  0  0  0  0  0  0  0  0  0  0
   11.7456   16.2227  -12.8725 C   0  0  0  0  0  0  0  0  0  0  0  0
   12.7451   15.1203  -12.7173 C   0  0  0  0  0  0  0  0  0  0  0  0
    9.4431   13.0488  -15.8165 C   0  0  0  0  0  0  0  0  0  0  0  0
   10.4293   13.9359  -15.4272 N   0  0  0  0  0  0  0  0  0  0  0  0
    8.6439   12.5658  -15.0136 O   0  0  0  0  0  0  0  0  0  0  0  0
    9.3170   12.6296  -17.2383 C   0  0  0  0  0  0  0  0  0  0  0  0
    8.0341   12.4278  -17.7685 C   0  0  0  0  0  0  0  0  0  0  0  0
    7.8732   11.9501  -19.0749 C   0  0  0  0  0  0  0  0  0  0  0  0
    8.9954   11.6750  -19.8630 C   0  0  0  0  0  0  0  0  0  0  0  0
   10.2752   11.8500  -19.3286 C   0  0  0  0  0  0  0  0  0  0  0  0
   10.4322   12.2936  -18.0121 C   0  0  0  0  0  0  0  0  0  0  0  0
    8.8417   11.1872  -21.2034 C   0  0  0  0  0  0  0  0  0  0  0  0
    8.7072   10.7877  -22.2835 N   0  0  0  0  0  0  0  0  0  0  0  0
   13.9221   13.6844  -15.9035 C   0  0  0  0  0  0  0  0  0  0  0  0
   13.6743   15.0872  -15.6254 N   0  0  0  0  0  0  0  0  0  0  0  0
   14.7247   15.9992  -15.6387 C   0  0  0  0  0  0  0  0  0  0  0  0
   16.0217   17.5530  -14.4296 C   0  0  0  0  0  0  0  0  0  0  0  0
   16.5880   17.2286  -16.5348 C   0  0  0  0  0  0  0  0  0  0  0  0
   15.5670   16.3069  -16.7489 C   0  0  0  0  0  0  0  0  0  0  0  0
   15.6972   15.9245  -18.1240 C   0  0  0  0  0  0  0  0  0  0  0  0
   16.7737   16.5913  -18.6708 C   0  0  0  0  0  0  0  0  0  0  0  0
   15.0125   16.6648  -14.4843 N   0  0  0  0  0  0  0  0  0  0  0  0
   16.8722   17.8864  -15.4045 N   0  0  0  0  0  0  0  0  0  0  0  0
   17.3040   17.3814  -17.6900 N   0  0  0  0  0  0  0  0  0  0  0  0
   18.1012   17.9953  -17.7771 H   0  0  0  0  0  0  0  0  0  0  0  0
 18 19  1  0  0  0
  1 19  1  0  0  0
  1  2  1  0  0  0
  2  8  1  0  0  0
  3  8  1  0  0  0
  3  4  1  0  0  0
  4  5  1  0  0  0
  4  1  1  0  0  0
  5  6  1  0  0  0
  6  4  1  0  0  0
  7 10  1  0  0  0
 11 12  2  0  0  0
 13 14  2  0  0  0
 13 16  1  0  0  0
 15 10  2  0  0  0
 21 26  2  0  0  0
 22 27  2  0  0  0
 23 24  1  0  0  0
 23 20  2  0  0  0
 25 28  1  0  0  0
 19 20  1  0  0  0
  8  7  1  0  0  0
 28 22  1  0  0  0
  7  9  2  0  0  0
 10 11  1  0  0  0
 12 13  1  0  0  0
 14 15  1  0  0  0
 20 26  1  0  0  0
 21 27  1  0  0  0
 22 23  1  0  0  0
 24 25  2  0  0  0
 16 17  3  0  0  0
 28 29  1  0  0  0
M  END
> <minimizedAffinity>
-8.44411

$$$$
CHEMBL4292627


 29 33  0  0  0  0  0  0  0  0999 V2000
   11.4749   14.0488  -19.9106 C   0  0  0  0  0  0  0  0  0  0  0  0
   12.1138   14.7382  -18.6924 C   0  0  0  0  0  0  0  0  0  0  0  0
   13.9241   13.7864  -19.9675 C   0  0  0  0  0  0  0  0  0  0  0  0
   12.6501   13.5964  -20.7534 C   0  0  0  0  0  0  0  0  0  0  0  0
   12.6551   13.9215  -22.2405 C   0  0  0  0  0  0  0  0  0  0  0  0
   12.5426   12.4968  -21.7978 C   0  0  0  0  0  0  0  0  0  0  0  0
   14.5030   14.6485  -17.7572 C   0  0  0  0  0  0  0  0  0  0  0  0
   13.5309   14.3834  -18.7038 N   0  0  0  0  0  0  0  0  0  0  0  0
   15.7048   14.5729  -18.0153 O   0  0  0  0  0  0  0  0  0  0  0  0
   14.1273   15.0285  -16.3689 C   0  0  0  0  0  0  0  0  0  0  0  0
   14.8773   16.0182  -15.7164 C   0  0  0  0  0  0  0  0  0  0  0  0
   14.6124   16.3441  -14.3806 C   0  0  0  0  0  0  0  0  0  0  0  0
   13.5913   15.6853  -13.6883 C   0  0  0  0  0  0  0  0  0  0  0  0
   12.8596   14.6802  -14.3276 C   0  0  0  0  0  0  0  0  0  0  0  0
   13.1501   14.3328  -15.6503 C   0  0  0  0  0  0  0  0  0  0  0  0
   13.3103   16.0130  -12.3202 C   0  0  0  0  0  0  0  0  0  0  0  0
   13.0906   16.2873  -11.2153 N   0  0  0  0  0  0  0  0  0  0  0  0
   10.2504   11.9863  -20.6017 C   0  0  0  0  0  0  0  0  0  0  0  0
   10.5020   12.9861  -19.5802 N   0  0  0  0  0  0  0  0  0  0  0  0
    9.8303   12.9275  -18.3634 C   0  0  0  0  0  0  0  0  0  0  0  0
    7.9015   13.4905  -17.1299 C   0  0  0  0  0  0  0  0  0  0  0  0
    9.4345   12.3126  -16.0717 C   0  0  0  0  0  0  0  0  0  0  0  0
   10.2843   12.2826  -17.1740 C   0  0  0  0  0  0  0  0  0  0  0  0
   11.4356   11.5520  -16.7328 C   0  0  0  0  0  0  0  0  0  0  0  0
   11.2383   11.1583  -15.4257 C   0  0  0  0  0  0  0  0  0  0  0  0
    8.6055   13.5200  -18.2762 N   0  0  0  0  0  0  0  0  0  0  0  0
    8.2333   12.8953  -15.9808 N   0  0  0  0  0  0  0  0  0  0  0  0
   10.0156   11.6303  -15.0386 N   0  0  0  0  0  0  0  0  0  0  0  0
    9.5830   11.5098  -14.1341 H   0  0  0  0  0  0  0  0  0  0  0  0
 18 19  1  0  0  0
  1 19  1  0  0  0
  1  2  1  0  0  0
  2  8  1  0  0  0
  3  8  1  0  0  0
  3  4  1  0  0  0
  4  5  1  0  0  0
  4  1  1  0  0  0
  5  6  1  0  0  0
  6  4  1  0  0  0
  7 10  1  0  0  0
 11 12  2  0  0  0
 13 14  2  0  0  0
 13 16  1  0  0  0
 15 10  2  0  0  0
 21 26  2  0  0  0
 22 27  2  0  0  0
 23 24  1  0  0  0
 23 20  2  0  0  0
 25 28  1  0  0  0
 19 20  1  0  0  0
  8  7  1  0  0  0
 28 22  1  0  0  0
  7  9  2  0  0  0
 10 11  1  0  0  0
 12 13  1  0  0  0
 14 15  1  0  0  0
 20 26  1  0  0  0
 21 27  1  0  0  0
 22 23  1  0  0  0
 24 25  2  0  0  0
 16 17  3  0  0  0
 28 29  1  0  0  0
M  END
> <minimizedAffinity>
-8.39477

$$$$
CHEMBL4292627


 29 33  0  0  0  0  0  0  0  0999 V2000
   11.0583   13.9920  -16.7420 C   0  0  0  0  0  0  0  0  0  0  0  0
   11.2528   14.1884  -18.2557 C   0  0  0  0  0  0  0  0  0  0  0  0
    9.9581   12.1732  -17.9878 C   0  0  0  0  0  0  0  0  0  0  0  0
   10.1223   12.8059  -16.6279 C   0  0  0  0  0  0  0  0  0  0  0  0
    8.9030   12.9176  -15.7233 C   0  0  0  0  0  0  0  0  0  0  0  0
   10.0019   11.9674  -15.3653 C   0  0  0  0  0  0  0  0  0  0  0  0
   10.7934   12.6231  -20.2380 C   0  0  0  0  0  0  0  0  0  0  0  0
   10.7355   12.9865  -18.9055 N   0  0  0  0  0  0  0  0  0  0  0  0
   10.0638   11.7505  -20.7101 O   0  0  0  0  0  0  0  0  0  0  0  0
   11.7618   13.2736  -21.1611 C   0  0  0  0  0  0  0  0  0  0  0  0
   11.4853   14.5695  -21.6214 C   0  0  0  0  0  0  0  0  0  0  0  0
   12.3252   15.1842  -22.5581 C   0  0  0  0  0  0  0  0  0  0  0  0
   13.4517   14.5084  -23.0382 C   0  0  0  0  0  0  0  0  0  0  0  0
   13.7154   13.2070  -22.6014 C   0  0  0  0  0  0  0  0  0  0  0  0
   12.8552   12.5829  -21.6929 C   0  0  0  0  0  0  0  0  0  0  0  0
   14.3199   15.1299  -23.9964 C   0  0  0  0  0  0  0  0  0  0  0  0
   15.0271   15.6216  -24.7725 N   0  0  0  0  0  0  0  0  0  0  0  0
   13.3201   12.9666  -16.4899 C   0  0  0  0  0  0  0  0  0  0  0  0
   12.3118   13.8707  -15.9680 N   0  0  0  0  0  0  0  0  0  0  0  0
   12.5393   14.5639  -14.7836 C   0  0  0  0  0  0  0  0  0  0  0  0
   11.8608   14.9814  -12.5646 C   0  0  0  0  0  0  0  0  0  0  0  0
   13.6661   16.0404  -13.2550 C   0  0  0  0  0  0  0  0  0  0  0  0
   13.6017   15.4821  -14.5286 C   0  0  0  0  0  0  0  0  0  0  0  0
   14.7128   16.0468  -15.2360 C   0  0  0  0  0  0  0  0  0  0  0  0
   15.4026   16.8844  -14.3845 C   0  0  0  0  0  0  0  0  0  0  0  0
   11.6894   14.3485  -13.7395 N   0  0  0  0  0  0  0  0  0  0  0  0
   12.8327   15.8343  -12.2285 N   0  0  0  0  0  0  0  0  0  0  0  0
   14.7515   16.8694  -13.1830 N   0  0  0  0  0  0  0  0  0  0  0  0
   15.0092   17.3831  -12.3526 H   0  0  0  0  0  0  0  0  0  0  0  0
 18 19  1  0  0  0
  1 19  1  0  0  0
  1  2  1  0  0  0
  2  8  1  0  0  0
  3  8  1  0  0  0
  3  4  1  0  0  0
  4  5  1  0  0  0
  4  1  1  0  0  0
  5  6  1  0  0  0
  6  4  1  0  0  0
  7 10  1  0  0  0
 11 12  2  0  0  0
 13 14  2  0  0  0
 13 16  1  0  0  0
 15 10  2  0  0  0
 21 26  2  0  0  0
 22 27  2  0  0  0
 23 24  1  0  0  0
 23 20  2  0  0  0
 25 28  1  0  0  0
 19 20  1  0  0  0
  8  7  1  0  0  0
 28 22  1  0  0  0
  7  9  2  0  0  0
 10 11  1  0  0  0
 12 13  1  0  0  0
 14 15  1  0  0  0
 20 26  1  0  0  0
 21 27  1  0  0  0
 22 23  1  0  0  0
 24 25  2  0  0  0
 16 17  3  0  0  0
 28 29  1  0  0  0
M  END
> <minimizedAffinity>
-8.27475

$$$$
CHEMBL4292627


 29 33  0  0  0  0  0  0  0  0999 V2000
   10.7177   13.7926  -18.8649 C   0  0  0  0  0  0  0  0  0  0  0  0
   11.5366   14.5482  -17.8036 C   0  0  0  0  0  0  0  0  0  0  0  0
   13.1110   13.7606  -19.4498 C   0  0  0  0  0  0  0  0  0  0  0  0
   11.7211   13.4459  -19.9461 C   0  0  0  0  0  0  0  0  0  0  0  0
   11.3759   13.7587  -21.3953 C   0  0  0  0  0  0  0  0  0  0  0  0
   11.4946   12.3332  -20.9570 C   0  0  0  0  0  0  0  0  0  0  0  0
   14.0686   14.6901  -17.4048 C   0  0  0  0  0  0  0  0  0  0  0  0
   12.9449   14.3278  -18.1237 N   0  0  0  0  0  0  0  0  0  0  0  0
   15.1886   14.7256  -17.9159 O   0  0  0  0  0  0  0  0  0  0  0  0
   13.9666   15.0438  -15.9634 C   0  0  0  0  0  0  0  0  0  0  0  0
   12.9791   14.4203  -15.1864 C   0  0  0  0  0  0  0  0  0  0  0  0
   12.7923   14.7873  -13.8481 C   0  0  0  0  0  0  0  0  0  0  0  0
   13.5959   15.7783  -13.2751 C   0  0  0  0  0  0  0  0  0  0  0  0
   14.5632   16.4199  -14.0540 C   0  0  0  0  0  0  0  0  0  0  0  0
   14.7233   16.0758  -15.3996 C   0  0  0  0  0  0  0  0  0  0  0  0
   13.4143   16.1603  -11.9042 C   0  0  0  0  0  0  0  0  0  0  0  0
   13.2584   16.4760  -10.7995 N   0  0  0  0  0  0  0  0  0  0  0  0
   10.6976   11.4847  -17.9140 C   0  0  0  0  0  0  0  0  0  0  0  0
    9.9420   12.6459  -18.3468 N   0  0  0  0  0  0  0  0  0  0  0  0
    8.5526   12.6417  -18.2788 C   0  0  0  0  0  0  0  0  0  0  0  0
    6.5963   13.7336  -17.5444 C   0  0  0  0  0  0  0  0  0  0  0  0
    6.3109   11.8697  -18.6855 C   0  0  0  0  0  0  0  0  0  0  0  0
    7.6789   11.6618  -18.8386 C   0  0  0  0  0  0  0  0  0  0  0  0
    7.7862   10.4350  -19.5716 C   0  0  0  0  0  0  0  0  0  0  0  0
    6.5175    9.9694  -19.8473 C   0  0  0  0  0  0  0  0  0  0  0  0
    7.9374   13.6750  -17.6366 N   0  0  0  0  0  0  0  0  0  0  0  0
    5.7029   12.8805  -18.0535 N   0  0  0  0  0  0  0  0  0  0  0  0
    5.6314   10.8543  -19.3001 N   0  0  0  0  0  0  0  0  0  0  0  0
    4.6238   10.7922  -19.3286 H   0  0  0  0  0  0  0  0  0  0  0  0
 18 19  1  0  0  0
  1 19  1  0  0  0
  1  2  1  0  0  0
  2  8  1  0  0  0
  3  8  1  0  0  0
  3  4  1  0  0  0
  4  5  1  0  0  0
  4  1  1  0  0  0
  5  6  1  0  0  0
  6  4  1  0  0  0
  7 10  1  0  0  0
 11 12  2  0  0  0
 13 14  2  0  0  0
 13 16  1  0  0  0
 15 10  2  0  0  0
 21 26  2  0  0  0
 22 27  2  0  0  0
 23 24  1  0  0  0
 23 20  2  0  0  0
 25 28  1  0  0  0
 19 20  1  0  0  0
  8  7  1  0  0  0
 28 22  1  0  0  0
  7  9  2  0  0  0
 10 11  1  0  0  0
 12 13  1  0  0  0
 14 15  1  0  0  0
 20 26  1  0  0  0
 21 27  1  0  0  0
 22 23  1  0  0  0
 24 25  2  0  0  0
 16 17  3  0  0  0
 28 29  1  0  0  0
M  END
> <minimizedAffinity>
-8.17898

$$$$
CHEMBL1630793


 34 38  0  0  0  0  0  0  0  0999 V2000
   11.7226   12.3744  -20.0986 N   0  0  0  0  0  0  0  0  0  0  0  0
   13.3896   13.5156  -21.5922 C   0  0  0  0  0  0  0  0  0  0  0  0
   13.1437   12.5684  -20.3944 C   0  0  0  0  0  0  0  0  0  0  0  0
   10.9571   11.8361  -21.2173 C   0  0  0  0  0  0  0  0  0  0  0  0
   11.0376   12.7662  -22.4233 C   0  0  0  0  0  0  0  0  0  0  0  0
   12.4838   13.1572  -22.8098 C   0  0  0  0  0  0  0  0  0  0  0  0
   13.1090   12.0106  -23.6306 C   0  0  0  0  0  0  0  0  0  0  0  0
   11.0657   12.6438  -18.9059 C   0  0  0  0  0  0  0  0  0  0  0  0
    9.8664   12.3739  -18.7678 O   0  0  0  0  0  0  0  0  0  0  0  0
   11.1576   13.7301  -15.5410 N   0  0  0  0  0  0  0  0  0  0  0  0
   11.8214   13.2404  -17.7344 C   0  0  0  0  0  0  0  0  0  0  0  0
   12.3457   12.1411  -16.7962 C   0  0  0  0  0  0  0  0  0  0  0  0
   12.0160   12.5923  -15.3848 C   0  0  0  0  0  0  0  0  0  0  0  0
   10.9239   14.0717  -16.8563 C   0  0  0  0  0  0  0  0  0  0  0  0
   10.1579   14.9498  -17.2344 O   0  0  0  0  0  0  0  0  0  0  0  0
   10.6115   14.4661  -14.4195 C   0  0  0  0  0  0  0  0  0  0  0  0
   11.6990   15.0194  -13.5266 C   0  0  0  0  0  0  0  0  0  0  0  0
   12.8032   15.6799  -14.0877 C   0  0  0  0  0  0  0  0  0  0  0  0
   13.8194   16.1868  -13.2764 C   0  0  0  0  0  0  0  0  0  0  0  0
   13.7555   16.0202  -11.8953 C   0  0  0  0  0  0  0  0  0  0  0  0
   12.6734   15.3510  -11.3256 C   0  0  0  0  0  0  0  0  0  0  0  0
   11.6490   14.8542  -12.1357 C   0  0  0  0  0  0  0  0  0  0  0  0
   13.3755   14.9394  -21.2026 N   0  0  0  0  0  0  0  0  0  0  0  0
   12.2129   15.7976  -21.4119 C   0  0  0  0  0  0  0  0  0  0  0  0
   14.3588   14.9551  -19.0523 N   0  0  0  0  0  0  0  0  0  0  0  0
   16.1523   16.3592  -18.2900 N   0  0  0  0  0  0  0  0  0  0  0  0
   16.9024   17.9152  -19.9184 N   0  0  0  0  0  0  0  0  0  0  0  0
   15.2471   15.3888  -18.1440 C   0  0  0  0  0  0  0  0  0  0  0  0
   16.0935   16.8897  -19.5169 C   0  0  0  0  0  0  0  0  0  0  0  0
   16.6152   18.2519  -21.2100 C   0  0  0  0  0  0  0  0  0  0  0  0
   15.5990   17.4216  -21.6347 C   0  0  0  0  0  0  0  0  0  0  0  0
   15.2482   16.5341  -20.5659 C   0  0  0  0  0  0  0  0  0  0  0  0
   14.3200   15.4821  -20.3151 C   0  0  0  0  0  0  0  0  0  0  0  0
   17.5916   18.3468  -19.3200 H   0  0  0  0  0  0  0  0  0  0  0  0
 27 30  1  0  0  0
  1  8  1  0  0  0
 10 14  1  0  0  0
 28 26  2  0  0  0
 29 27  1  0  0  0
 31 32  1  0  0  0
 32 29  2  0  0  0
 33 23  1  0  0  0
 33 25  2  0  0  0
  2 23  1  0  0  0
  2  3  1  0  0  0
  3  1  1  0  0  0
  4  1  1  0  0  0
  4  5  1  0  0  0
  5  6  1  0  0  0
  6  7  1  0  0  0
  6  2  1  0  0  0
 11  8  1  0  0  0
 11 12  1  0  0  0
 11 14  1  0  0  0
 12 13  1  0  0  0
 13 10  1  0  0  0
 16 10  1  0  0  0
 16 17  1  0  0  0
 18 19  2  0  0  0
 20 21  2  0  0  0
 22 17  2  0  0  0
 24 23  1  0  0  0
 28 25  1  0  0  0
 29 26  1  0  0  0
 30 31  2  0  0  0
 32 33  1  0  0  0
  8  9  2  0  0  0
 14 15  2  0  0  0
 17 18  1  0  0  0
 19 20  1  0  0  0
 21 22  1  0  0  0
 27 34  1  0  0  0
M  END
> <minimizedAffinity>
-9.26477

$$$$
CHEMBL1630793


 34 38  0  0  0  0  0  0  0  0999 V2000
   11.8138   12.3716  -20.2417 N   0  0  0  0  0  0  0  0  0  0  0  0
   13.3518   13.5726  -21.8242 C   0  0  0  0  0  0  0  0  0  0  0  0
   13.2080   12.6685  -20.5776 C   0  0  0  0  0  0  0  0  0  0  0  0
   11.0766   11.7169  -21.3165 C   0  0  0  0  0  0  0  0  0  0  0  0
   11.0569   12.5897  -22.5669 C   0  0  0  0  0  0  0  0  0  0  0  0
   12.4578   13.0804  -23.0032 C   0  0  0  0  0  0  0  0  0  0  0  0
   13.1627   11.9508  -23.7819 C   0  0  0  0  0  0  0  0  0  0  0  0
   11.1579   12.6438  -19.0491 C   0  0  0  0  0  0  0  0  0  0  0  0
    9.9884   12.2821  -18.8720 O   0  0  0  0  0  0  0  0  0  0  0  0
   11.2718   13.7784  -15.7009 N   0  0  0  0  0  0  0  0  0  0  0  0
   11.8815   13.3583  -17.9242 C   0  0  0  0  0  0  0  0  0  0  0  0
   12.6071   12.3583  -17.0094 C   0  0  0  0  0  0  0  0  0  0  0  0
   12.2916   12.7772  -15.5848 C   0  0  0  0  0  0  0  0  0  0  0  0
   10.9220   14.0650  -17.0036 C   0  0  0  0  0  0  0  0  0  0  0  0
   10.0190   14.8193  -17.3445 O   0  0  0  0  0  0  0  0  0  0  0  0
   10.6862   14.4443  -14.5558 C   0  0  0  0  0  0  0  0  0  0  0  0
   11.7413   15.0365  -13.6490 C   0  0  0  0  0  0  0  0  0  0  0  0
   12.8686   15.6675  -14.1981 C   0  0  0  0  0  0  0  0  0  0  0  0
   13.8553   16.2097  -13.3733 C   0  0  0  0  0  0  0  0  0  0  0  0
   13.7385   16.1082  -11.9894 C   0  0  0  0  0  0  0  0  0  0  0  0
   12.6330   15.4689  -11.4305 C   0  0  0  0  0  0  0  0  0  0  0  0
   11.6380   14.9370  -12.2548 C   0  0  0  0  0  0  0  0  0  0  0  0
   13.2247   15.0078  -21.5027 N   0  0  0  0  0  0  0  0  0  0  0  0
   11.9320   15.6499  -21.2820 C   0  0  0  0  0  0  0  0  0  0  0  0
   14.9400   16.5619  -21.9857 N   0  0  0  0  0  0  0  0  0  0  0  0
   16.5467   17.4700  -20.4485 N   0  0  0  0  0  0  0  0  0  0  0  0
   16.3586   16.5987  -18.2483 N   0  0  0  0  0  0  0  0  0  0  0  0
   15.9717   17.3514  -21.6475 C   0  0  0  0  0  0  0  0  0  0  0  0
   15.9494   16.6793  -19.5495 C   0  0  0  0  0  0  0  0  0  0  0  0
   15.5717   15.7124  -17.5703 C   0  0  0  0  0  0  0  0  0  0  0  0
   14.6445   15.2190  -18.4644 C   0  0  0  0  0  0  0  0  0  0  0  0
   14.8637   15.8276  -19.7429 C   0  0  0  0  0  0  0  0  0  0  0  0
   14.3144   15.7745  -21.0569 C   0  0  0  0  0  0  0  0  0  0  0  0
   17.1392   17.1206  -17.8775 H   0  0  0  0  0  0  0  0  0  0  0  0
 27 30  1  0  0  0
  1  8  1  0  0  0
 10 14  1  0  0  0
 28 26  2  0  0  0
 29 27  1  0  0  0
 31 32  1  0  0  0
 32 29  2  0  0  0
 33 23  1  0  0  0
 33 25  2  0  0  0
  2 23  1  0  0  0
  2  3  1  0  0  0
  3  1  1  0  0  0
  4  1  1  0  0  0
  4  5  1  0  0  0
  5  6  1  0  0  0
  6  7  1  0  0  0
  6  2  1  0  0  0
 11  8  1  0  0  0
 11 12  1  0  0  0
 11 14  1  0  0  0
 12 13  1  0  0  0
 13 10  1  0  0  0
 16 10  1  0  0  0
 16 17  1  0  0  0
 18 19  2  0  0  0
 20 21  2  0  0  0
 22 17  2  0  0  0
 24 23  1  0  0  0
 28 25  1  0  0  0
 29 26  1  0  0  0
 30 31  2  0  0  0
 32 33  1  0  0  0
  8  9  2  0  0  0
 14 15  2  0  0  0
 17 18  1  0  0  0
 19 20  1  0  0  0
 21 22  1  0  0  0
 27 34  1  0  0  0
M  END
> <minimizedAffinity>
-9.12299

$$$$
CHEMBL1630793


 34 38  0  0  0  0  0  0  0  0999 V2000
   10.0618   14.2365  -14.6853 N   0  0  0  0  0  0  0  0  0  0  0  0
   12.3977   15.1399  -14.8838 C   0  0  0  0  0  0  0  0  0  0  0  0
   10.9038   15.2908  -15.2548 C   0  0  0  0  0  0  0  0  0  0  0  0
   10.1221   14.1574  -13.2301 C   0  0  0  0  0  0  0  0  0  0  0  0
   11.5488   13.8884  -12.7631 C   0  0  0  0  0  0  0  0  0  0  0  0
   12.5916   14.8620  -13.3617 C   0  0  0  0  0  0  0  0  0  0  0  0
   12.5603   16.1808  -12.5624 C   0  0  0  0  0  0  0  0  0  0  0  0
    9.2485   13.3450  -15.3711 C   0  0  0  0  0  0  0  0  0  0  0  0
    8.5362   12.5385  -14.7609 O   0  0  0  0  0  0  0  0  0  0  0  0
    8.3725   11.8217  -18.4408 N   0  0  0  0  0  0  0  0  0  0  0  0
    9.1908   13.3724  -16.8861 C   0  0  0  0  0  0  0  0  0  0  0  0
    7.8116   13.8393  -17.3794 C   0  0  0  0  0  0  0  0  0  0  0  0
    7.4080   12.8816  -18.4859 C   0  0  0  0  0  0  0  0  0  0  0  0
    9.3418   11.9949  -17.4754 C   0  0  0  0  0  0  0  0  0  0  0  0
   10.2145   11.1824  -17.1947 O   0  0  0  0  0  0  0  0  0  0  0  0
    8.3443   10.6905  -19.3448 C   0  0  0  0  0  0  0  0  0  0  0  0
    8.9198   11.0380  -20.6990 C   0  0  0  0  0  0  0  0  0  0  0  0
    8.1821   10.7804  -21.8652 C   0  0  0  0  0  0  0  0  0  0  0  0
    8.7049   11.0867  -23.1225 C   0  0  0  0  0  0  0  0  0  0  0  0
    9.9809   11.6337  -23.2310 C   0  0  0  0  0  0  0  0  0  0  0  0
   10.7318   11.8787  -22.0823 C   0  0  0  0  0  0  0  0  0  0  0  0
   10.2046   11.5844  -20.8223 C   0  0  0  0  0  0  0  0  0  0  0  0
   13.1155   14.2147  -15.7826 N   0  0  0  0  0  0  0  0  0  0  0  0
   12.8622   12.7768  -15.7918 C   0  0  0  0  0  0  0  0  0  0  0  0
   15.0705   15.1950  -16.6816 N   0  0  0  0  0  0  0  0  0  0  0  0
   15.5336   15.6431  -18.9955 N   0  0  0  0  0  0  0  0  0  0  0  0
   13.7481   15.0733  -20.4524 N   0  0  0  0  0  0  0  0  0  0  0  0
   15.8380   15.6246  -17.6957 C   0  0  0  0  0  0  0  0  0  0  0  0
   14.3087   15.1489  -19.2085 C   0  0  0  0  0  0  0  0  0  0  0  0
   12.4963   14.5353  -20.3633 C   0  0  0  0  0  0  0  0  0  0  0  0
   12.2586   14.2666  -19.0315 C   0  0  0  0  0  0  0  0  0  0  0  0
   13.4098   14.6486  -18.2687 C   0  0  0  0  0  0  0  0  0  0  0  0
   13.8284   14.6652  -16.9065 C   0  0  0  0  0  0  0  0  0  0  0  0
   14.2120   15.3892  -21.2915 H   0  0  0  0  0  0  0  0  0  0  0  0
 27 30  1  0  0  0
  1  8  1  0  0  0
 10 14  1  0  0  0
 28 26  2  0  0  0
 29 27  1  0  0  0
 31 32  1  0  0  0
 32 29  2  0  0  0
 33 23  1  0  0  0
 33 25  2  0  0  0
  2 23  1  0  0  0
  2  3  1  0  0  0
  3  1  1  0  0  0
  4  1  1  0  0  0
  4  5  1  0  0  0
  5  6  1  0  0  0
  6  7  1  0  0  0
  6  2  1  0  0  0
 11  8  1  0  0  0
 11 12  1  0  0  0
 11 14  1  0  0  0
 12 13  1  0  0  0
 13 10  1  0  0  0
 16 10  1  0  0  0
 16 17  1  0  0  0
 18 19  2  0  0  0
 20 21  2  0  0  0
 22 17  2  0  0  0
 24 23  1  0  0  0
 28 25  1  0  0  0
 29 26  1  0  0  0
 30 31  2  0  0  0
 32 33  1  0  0  0
  8  9  2  0  0  0
 14 15  2  0  0  0
 17 18  1  0  0  0
 19 20  1  0  0  0
 21 22  1  0  0  0
 27 34  1  0  0  0
M  END
> <minimizedAffinity>
-9.01488

$$$$
CHEMBL1630793


 34 38  0  0  0  0  0  0  0  0999 V2000
   11.7211   12.3981  -20.1656 N   0  0  0  0  0  0  0  0  0  0  0  0
   13.4257   13.4060  -21.7118 C   0  0  0  0  0  0  0  0  0  0  0  0
   13.1480   12.5292  -20.4683 C   0  0  0  0  0  0  0  0  0  0  0  0
   10.9381   11.8301  -21.2572 C   0  0  0  0  0  0  0  0  0  0  0  0
   11.0500   12.6948  -22.5084 C   0  0  0  0  0  0  0  0  0  0  0  0
   12.5085   13.0172  -22.9115 C   0  0  0  0  0  0  0  0  0  0  0  0
   13.0949   11.8103  -23.6723 C   0  0  0  0  0  0  0  0  0  0  0  0
   11.0735   12.7492  -18.9892 C   0  0  0  0  0  0  0  0  0  0  0  0
    9.8658   12.5270  -18.8399 O   0  0  0  0  0  0  0  0  0  0  0  0
   11.2574   13.8252  -15.6248 N   0  0  0  0  0  0  0  0  0  0  0  0
   11.8487   13.3784  -17.8479 C   0  0  0  0  0  0  0  0  0  0  0  0
   12.4680   12.3033  -16.9402 C   0  0  0  0  0  0  0  0  0  0  0  0
   12.1780   12.7316  -15.5130 C   0  0  0  0  0  0  0  0  0  0  0  0
   10.9497   14.1599  -16.9266 C   0  0  0  0  0  0  0  0  0  0  0  0
   10.1248   14.9997  -17.2656 O   0  0  0  0  0  0  0  0  0  0  0  0
   10.7245   14.5282  -14.4762 C   0  0  0  0  0  0  0  0  0  0  0  0
   11.8224   15.0879  -13.6000 C   0  0  0  0  0  0  0  0  0  0  0  0
   12.9244   15.7362  -14.1792 C   0  0  0  0  0  0  0  0  0  0  0  0
   13.9500   16.2488  -13.3834 C   0  0  0  0  0  0  0  0  0  0  0  0
   13.8977   16.0998  -11.9998 C   0  0  0  0  0  0  0  0  0  0  0  0
   12.8178   15.4427  -11.4121 C   0  0  0  0  0  0  0  0  0  0  0  0
   11.7841   14.9405  -12.2067 C   0  0  0  0  0  0  0  0  0  0  0  0
   13.4594   14.8473  -21.3946 N   0  0  0  0  0  0  0  0  0  0  0  0
   13.6759   15.3465  -20.0397 C   0  0  0  0  0  0  0  0  0  0  0  0
   14.9074   16.0979  -22.7838 N   0  0  0  0  0  0  0  0  0  0  0  0
   14.2841   17.7557  -24.4064 N   0  0  0  0  0  0  0  0  0  0  0  0
   11.9478   18.1651  -24.5011 N   0  0  0  0  0  0  0  0  0  0  0  0
   15.1632   16.9983  -23.7461 C   0  0  0  0  0  0  0  0  0  0  0  0
   13.0347   17.5084  -23.9967 C   0  0  0  0  0  0  0  0  0  0  0  0
   10.8115   17.7124  -23.8943 C   0  0  0  0  0  0  0  0  0  0  0  0
   11.1889   16.7484  -22.9829 C   0  0  0  0  0  0  0  0  0  0  0  0
   12.6127   16.5959  -23.0319 C   0  0  0  0  0  0  0  0  0  0  0  0
   13.6254   15.8284  -22.3864 C   0  0  0  0  0  0  0  0  0  0  0  0
   12.0106   18.8831  -25.2081 H   0  0  0  0  0  0  0  0  0  0  0  0
 27 30  1  0  0  0
  1  8  1  0  0  0
 10 14  1  0  0  0
 28 26  2  0  0  0
 29 27  1  0  0  0
 31 32  1  0  0  0
 32 29  2  0  0  0
 33 23  1  0  0  0
 33 25  2  0  0  0
  2 23  1  0  0  0
  2  3  1  0  0  0
  3  1  1  0  0  0
  4  1  1  0  0  0
  4  5  1  0  0  0
  5  6  1  0  0  0
  6  7  1  0  0  0
  6  2  1  0  0  0
 11  8  1  0  0  0
 11 12  1  0  0  0
 11 14  1  0  0  0
 12 13  1  0  0  0
 13 10  1  0  0  0
 16 10  1  0  0  0
 16 17  1  0  0  0
 18 19  2  0  0  0
 20 21  2  0  0  0
 22 17  2  0  0  0
 24 23  1  0  0  0
 28 25  1  0  0  0
 29 26  1  0  0  0
 30 31  2  0  0  0
 32 33  1  0  0  0
  8  9  2  0  0  0
 14 15  2  0  0  0
 17 18  1  0  0  0
 19 20  1  0  0  0
 21 22  1  0  0  0
 27 34  1  0  0  0
M  END
> <minimizedAffinity>
-9.01036

$$$$
CHEMBL1630793


 34 38  0  0  0  0  0  0  0  0999 V2000
   12.7983   13.9744  -19.5931 N   0  0  0  0  0  0  0  0  0  0  0  0
   10.6556   13.3535  -20.7486 C   0  0  0  0  0  0  0  0  0  0  0  0
   11.4179   14.3754  -19.8729 C   0  0  0  0  0  0  0  0  0  0  0  0
   13.6056   13.7703  -20.7905 C   0  0  0  0  0  0  0  0  0  0  0  0
   12.9972   12.6853  -21.6729 C   0  0  0  0  0  0  0  0  0  0  0  0
   11.4975   12.9058  -21.9824 C   0  0  0  0  0  0  0  0  0  0  0  0
   11.3691   13.9323  -23.1266 C   0  0  0  0  0  0  0  0  0  0  0  0
   13.3835   13.7788  -18.3498 C   0  0  0  0  0  0  0  0  0  0  0  0
   14.5844   13.4992  -18.2514 O   0  0  0  0  0  0  0  0  0  0  0  0
   12.8095   15.3782  -15.2476 N   0  0  0  0  0  0  0  0  0  0  0  0
   12.5643   13.9439  -17.0844 C   0  0  0  0  0  0  0  0  0  0  0  0
   11.5649   15.1042  -17.2193 C   0  0  0  0  0  0  0  0  0  0  0  0
   11.6676   15.9068  -15.9350 C   0  0  0  0  0  0  0  0  0  0  0  0
   13.4226   14.3363  -15.9110 C   0  0  0  0  0  0  0  0  0  0  0  0
   14.4601   13.7871  -15.5612 O   0  0  0  0  0  0  0  0  0  0  0  0
   13.2574   15.8760  -13.9634 C   0  0  0  0  0  0  0  0  0  0  0  0
   12.4587   15.2876  -12.8223 C   0  0  0  0  0  0  0  0  0  0  0  0
   12.9912   15.2731  -11.5236 C   0  0  0  0  0  0  0  0  0  0  0  0
   12.2696   14.7242  -10.4626 C   0  0  0  0  0  0  0  0  0  0  0  0
   11.0158   14.1628  -10.6906 C   0  0  0  0  0  0  0  0  0  0  0  0
   10.4820   14.1545  -11.9783 C   0  0  0  0  0  0  0  0  0  0  0  0
   11.1979   14.7152  -13.0392 C   0  0  0  0  0  0  0  0  0  0  0  0
   10.0731   12.2510  -19.9583 N   0  0  0  0  0  0  0  0  0  0  0  0
   10.3524   10.8473  -20.2470 C   0  0  0  0  0  0  0  0  0  0  0  0
    8.3738   13.2388  -18.6439 N   0  0  0  0  0  0  0  0  0  0  0  0
    8.0831   13.0438  -16.2676 N   0  0  0  0  0  0  0  0  0  0  0  0
    9.7740   11.7624  -15.2027 N   0  0  0  0  0  0  0  0  0  0  0  0
    7.7374   13.4699  -17.4848 C   0  0  0  0  0  0  0  0  0  0  0  0
    9.1970   12.3042  -16.3165 C   0  0  0  0  0  0  0  0  0  0  0  0
   10.8956   11.0678  -15.5546 C   0  0  0  0  0  0  0  0  0  0  0  0
   11.0326   11.1749  -16.9230 C   0  0  0  0  0  0  0  0  0  0  0  0
    9.9512   11.9617  -17.4371 C   0  0  0  0  0  0  0  0  0  0  0  0
    9.4980   12.4592  -18.6934 C   0  0  0  0  0  0  0  0  0  0  0  0
    9.4077   11.8868  -14.2702 H   0  0  0  0  0  0  0  0  0  0  0  0
 27 30  1  0  0  0
  1  8  1  0  0  0
 10 14  1  0  0  0
 28 26  2  0  0  0
 29 27  1  0  0  0
 31 32  1  0  0  0
 32 29  2  0  0  0
 33 23  1  0  0  0
 33 25  2  0  0  0
  2 23  1  0  0  0
  2  3  1  0  0  0
  3  1  1  0  0  0
  4  1  1  0  0  0
  4  5  1  0  0  0
  5  6  1  0  0  0
  6  7  1  0  0  0
  6  2  1  0  0  0
 11  8  1  0  0  0
 11 12  1  0  0  0
 11 14  1  0  0  0
 12 13  1  0  0  0
 13 10  1  0  0  0
 16 10  1  0  0  0
 16 17  1  0  0  0
 18 19  2  0  0  0
 20 21  2  0  0  0
 22 17  2  0  0  0
 24 23  1  0  0  0
 28 25  1  0  0  0
 29 26  1  0  0  0
 30 31  2  0  0  0
 32 33  1  0  0  0
  8  9  2  0  0  0
 14 15  2  0  0  0
 17 18  1  0  0  0
 19 20  1  0  0  0
 21 22  1  0  0  0
 27 34  1  0  0  0
M  END
> <minimizedAffinity>
-8.67025

$$$$
CHEMBL1630793


 34 38  0  0  0  0  0  0  0  0999 V2000
   11.7481   13.6819  -18.3451 N   0  0  0  0  0  0  0  0  0  0  0  0
   10.3766   14.3638  -16.3537 C   0  0  0  0  0  0  0  0  0  0  0  0
   10.8373   14.6876  -17.7942 C   0  0  0  0  0  0  0  0  0  0  0  0
   11.1860   12.3365  -18.3817 C   0  0  0  0  0  0  0  0  0  0  0  0
   10.8059   11.8722  -16.9796 C   0  0  0  0  0  0  0  0  0  0  0  0
    9.9183   12.8802  -16.2116 C   0  0  0  0  0  0  0  0  0  0  0  0
    8.4576   12.7176  -16.6800 C   0  0  0  0  0  0  0  0  0  0  0  0
   13.0393   13.8809  -18.8141 C   0  0  0  0  0  0  0  0  0  0  0  0
   13.6824   12.9504  -19.3146 O   0  0  0  0  0  0  0  0  0  0  0  0
   15.9090   15.9486  -18.8121 N   0  0  0  0  0  0  0  0  0  0  0  0
   13.6703   15.2585  -18.7554 C   0  0  0  0  0  0  0  0  0  0  0  0
   13.9978   15.7781  -20.1648 C   0  0  0  0  0  0  0  0  0  0  0  0
   15.4038   16.3457  -20.0939 C   0  0  0  0  0  0  0  0  0  0  0  0
   15.0044   15.2321  -18.0574 C   0  0  0  0  0  0  0  0  0  0  0  0
   15.2396   14.7167  -16.9714 O   0  0  0  0  0  0  0  0  0  0  0  0
   17.2361   16.2938  -18.3459 C   0  0  0  0  0  0  0  0  0  0  0  0
   17.5696   17.7428  -18.6201 C   0  0  0  0  0  0  0  0  0  0  0  0
   16.8103   18.7645  -18.0285 C   0  0  0  0  0  0  0  0  0  0  0  0
   17.1003   20.1063  -18.2805 C   0  0  0  0  0  0  0  0  0  0  0  0
   18.1390   20.4432  -19.1446 C   0  0  0  0  0  0  0  0  0  0  0  0
   18.8903   19.4388  -19.7528 C   0  0  0  0  0  0  0  0  0  0  0  0
   18.6092   18.0952  -19.4914 C   0  0  0  0  0  0  0  0  0  0  0  0
   11.3413   14.8186  -15.3330 N   0  0  0  0  0  0  0  0  0  0  0  0
   12.3835   15.7995  -15.6218 C   0  0  0  0  0  0  0  0  0  0  0  0
    9.9858   13.9538  -13.5994 N   0  0  0  0  0  0  0  0  0  0  0  0
   10.4326   14.0222  -11.2403 N   0  0  0  0  0  0  0  0  0  0  0  0
   12.4373   15.1650  -10.6831 N   0  0  0  0  0  0  0  0  0  0  0  0
    9.7120   13.6860  -12.3127 C   0  0  0  0  0  0  0  0  0  0  0  0
   11.5367   14.6900  -11.5943 C   0  0  0  0  0  0  0  0  0  0  0  0
   13.4545   15.8065  -11.3297 C   0  0  0  0  0  0  0  0  0  0  0  0
   13.1897   15.7378  -12.6816 C   0  0  0  0  0  0  0  0  0  0  0  0
   11.9643   15.0219  -12.8783 C   0  0  0  0  0  0  0  0  0  0  0  0
   11.1299   14.6137  -13.9592 C   0  0  0  0  0  0  0  0  0  0  0  0
   12.3308   15.0529   -9.6854 H   0  0  0  0  0  0  0  0  0  0  0  0
 27 30  1  0  0  0
  1  8  1  0  0  0
 10 14  1  0  0  0
 28 26  2  0  0  0
 29 27  1  0  0  0
 31 32  1  0  0  0
 32 29  2  0  0  0
 33 23  1  0  0  0
 33 25  2  0  0  0
  2 23  1  0  0  0
  2  3  1  0  0  0
  3  1  1  0  0  0
  4  1  1  0  0  0
  4  5  1  0  0  0
  5  6  1  0  0  0
  6  7  1  0  0  0
  6  2  1  0  0  0
 11  8  1  0  0  0
 11 12  1  0  0  0
 11 14  1  0  0  0
 12 13  1  0  0  0
 13 10  1  0  0  0
 16 10  1  0  0  0
 16 17  1  0  0  0
 18 19  2  0  0  0
 20 21  2  0  0  0
 22 17  2  0  0  0
 24 23  1  0  0  0
 28 25  1  0  0  0
 29 26  1  0  0  0
 30 31  2  0  0  0
 32 33  1  0  0  0
  8  9  2  0  0  0
 14 15  2  0  0  0
 17 18  1  0  0  0
 19 20  1  0  0  0
 21 22  1  0  0  0
 27 34  1  0  0  0
M  END
> <minimizedAffinity>
-8.17158

$$$$
CHEMBL1630793


 34 38  0  0  0  0  0  0  0  0999 V2000
   11.9427   14.0776  -19.4493 N   0  0  0  0  0  0  0  0  0  0  0  0
   10.8251   13.5025  -17.2740 C   0  0  0  0  0  0  0  0  0  0  0  0
   11.1765   14.5932  -18.3127 C   0  0  0  0  0  0  0  0  0  0  0  0
   11.2662   13.0116  -20.1796 C   0  0  0  0  0  0  0  0  0  0  0  0
   10.9791   11.8273  -19.2626 C   0  0  0  0  0  0  0  0  0  0  0  0
   10.2562   12.2186  -17.9518 C   0  0  0  0  0  0  0  0  0  0  0  0
    8.7499   12.3815  -18.2415 C   0  0  0  0  0  0  0  0  0  0  0  0
   13.1972   14.4902  -19.8767 C   0  0  0  0  0  0  0  0  0  0  0  0
   13.7089   14.0112  -20.8958 O   0  0  0  0  0  0  0  0  0  0  0  0
   16.2323   15.8743  -18.7005 N   0  0  0  0  0  0  0  0  0  0  0  0
   13.9469   15.5686  -19.1187 C   0  0  0  0  0  0  0  0  0  0  0  0
   14.4910   16.6417  -20.0757 C   0  0  0  0  0  0  0  0  0  0  0  0
   15.9265   16.8998  -19.6549 C   0  0  0  0  0  0  0  0  0  0  0  0
   15.1779   15.0234  -18.4442 C   0  0  0  0  0  0  0  0  0  0  0  0
   15.2292   14.0267  -17.7339 O   0  0  0  0  0  0  0  0  0  0  0  0
   17.5204   15.7629  -18.0479 C   0  0  0  0  0  0  0  0  0  0  0  0
   17.9358   17.0630  -17.3973 C   0  0  0  0  0  0  0  0  0  0  0  0
   19.1174   17.7057  -17.7988 C   0  0  0  0  0  0  0  0  0  0  0  0
   19.5184   18.9010  -17.2000 C   0  0  0  0  0  0  0  0  0  0  0  0
   18.7548   19.4571  -16.1769 C   0  0  0  0  0  0  0  0  0  0  0  0
   17.5882   18.8205  -15.7560 C   0  0  0  0  0  0  0  0  0  0  0  0
   17.1788   17.6306  -16.3633 C   0  0  0  0  0  0  0  0  0  0  0  0
   11.9156   13.2659  -16.3076 N   0  0  0  0  0  0  0  0  0  0  0  0
   13.0123   12.3399  -16.5749 C   0  0  0  0  0  0  0  0  0  0  0  0
   13.2398   14.9791  -15.3575 N   0  0  0  0  0  0  0  0  0  0  0  0
   12.9191   16.0462  -13.2297 N   0  0  0  0  0  0  0  0  0  0  0  0
   11.0954   15.1686  -11.9889 N   0  0  0  0  0  0  0  0  0  0  0  0
   13.5414   15.8673  -14.3972 C   0  0  0  0  0  0  0  0  0  0  0  0
   11.8873   15.2039  -13.1019 C   0  0  0  0  0  0  0  0  0  0  0  0
   10.1326   14.2119  -12.1369 C   0  0  0  0  0  0  0  0  0  0  0  0
   10.3215   13.6266  -13.3715 C   0  0  0  0  0  0  0  0  0  0  0  0
   11.4411   14.2490  -14.0133 C   0  0  0  0  0  0  0  0  0  0  0  0
   12.1671   14.1375  -15.2346 C   0  0  0  0  0  0  0  0  0  0  0  0
   11.2359   15.7660  -11.1872 H   0  0  0  0  0  0  0  0  0  0  0  0
 27 30  1  0  0  0
  1  8  1  0  0  0
 10 14  1  0  0  0
 28 26  2  0  0  0
 29 27  1  0  0  0
 31 32  1  0  0  0
 32 29  2  0  0  0
 33 23  1  0  0  0
 33 25  2  0  0  0
  2 23  1  0  0  0
  2  3  1  0  0  0
  3  1  1  0  0  0
  4  1  1  0  0  0
  4  5  1  0  0  0
  5  6  1  0  0  0
  6  7  1  0  0  0
  6  2  1  0  0  0
 11  8  1  0  0  0
 11 12  1  0  0  0
 11 14  1  0  0  0
 12 13  1  0  0  0
 13 10  1  0  0  0
 16 10  1  0  0  0
 16 17  1  0  0  0
 18 19  2  0  0  0
 20 21  2  0  0  0
 22 17  2  0  0  0
 24 23  1  0  0  0
 28 25  1  0  0  0
 29 26  1  0  0  0
 30 31  2  0  0  0
 32 33  1  0  0  0
  8  9  2  0  0  0
 14 15  2  0  0  0
 17 18  1  0  0  0
 19 20  1  0  0  0
 21 22  1  0  0  0
 27 34  1  0  0  0
M  END
> <minimizedAffinity>
-8.10875

$$$$
CHEMBL1630793


 34 38  0  0  0  0  0  0  0  0999 V2000
   12.7885   15.1194  -20.8628 N   0  0  0  0  0  0  0  0  0  0  0  0
   11.8746   14.4860  -23.1158 C   0  0  0  0  0  0  0  0  0  0  0  0
   11.5837   15.0026  -21.6872 C   0  0  0  0  0  0  0  0  0  0  0  0
   13.8027   16.0038  -21.4254 C   0  0  0  0  0  0  0  0  0  0  0  0
   14.2486   15.5094  -22.7975 C   0  0  0  0  0  0  0  0  0  0  0  0
   13.0763   15.2347  -23.7691 C   0  0  0  0  0  0  0  0  0  0  0  0
   12.6122   16.5717  -24.3827 C   0  0  0  0  0  0  0  0  0  0  0  0
   13.0438   14.4940  -19.6502 C   0  0  0  0  0  0  0  0  0  0  0  0
   14.0833   14.7289  -19.0223 O   0  0  0  0  0  0  0  0  0  0  0  0
   11.3211   13.1964  -16.8468 N   0  0  0  0  0  0  0  0  0  0  0  0
   12.0290   13.5376  -19.0544 C   0  0  0  0  0  0  0  0  0  0  0  0
   10.6698   14.2273  -18.8530 C   0  0  0  0  0  0  0  0  0  0  0  0
   10.1992   13.8437  -17.4618 C   0  0  0  0  0  0  0  0  0  0  0  0
   12.4232   13.0971  -17.6695 C   0  0  0  0  0  0  0  0  0  0  0  0
   13.5190   12.6630  -17.3357 O   0  0  0  0  0  0  0  0  0  0  0  0
   11.2868   12.6721  -15.4971 C   0  0  0  0  0  0  0  0  0  0  0  0
   11.5069   13.7564  -14.4666 C   0  0  0  0  0  0  0  0  0  0  0  0
   12.5460   14.6854  -14.6323 C   0  0  0  0  0  0  0  0  0  0  0  0
   12.7671   15.6854  -13.6841 C   0  0  0  0  0  0  0  0  0  0  0  0
   11.9661   15.7556  -12.5472 C   0  0  0  0  0  0  0  0  0  0  0  0
   10.9415   14.8289  -12.3609 C   0  0  0  0  0  0  0  0  0  0  0  0
   10.7109   13.8351  -13.3157 C   0  0  0  0  0  0  0  0  0  0  0  0
   11.9468   13.0131  -23.1834 N   0  0  0  0  0  0  0  0  0  0  0  0
   13.0772   12.2586  -22.6499 C   0  0  0  0  0  0  0  0  0  0  0  0
   10.4860   12.0280  -24.7603 N   0  0  0  0  0  0  0  0  0  0  0  0
    8.5872   10.6307  -24.3004 N   0  0  0  0  0  0  0  0  0  0  0  0
    8.1695   10.3230  -21.9839 N   0  0  0  0  0  0  0  0  0  0  0  0
    9.4412   11.2612  -25.1102 C   0  0  0  0  0  0  0  0  0  0  0  0
    8.8987   10.8419  -23.0164 C   0  0  0  0  0  0  0  0  0  0  0  0
    8.7156   10.7078  -20.7932 C   0  0  0  0  0  0  0  0  0  0  0  0
    9.8146   11.4906  -21.0792 C   0  0  0  0  0  0  0  0  0  0  0  0
    9.9561   11.5892  -22.5016 C   0  0  0  0  0  0  0  0  0  0  0  0
   10.8174   12.2196  -23.4460 C   0  0  0  0  0  0  0  0  0  0  0  0
    7.3462    9.7537  -22.1156 H   0  0  0  0  0  0  0  0  0  0  0  0
 27 30  1  0  0  0
  1  8  1  0  0  0
 10 14  1  0  0  0
 28 26  2  0  0  0
 29 27  1  0  0  0
 31 32  1  0  0  0
 32 29  2  0  0  0
 33 23  1  0  0  0
 33 25  2  0  0  0
  2 23  1  0  0  0
  2  3  1  0  0  0
  3  1  1  0  0  0
  4  1  1  0  0  0
  4  5  1  0  0  0
  5  6  1  0  0  0
  6  7  1  0  0  0
  6  2  1  0  0  0
 11  8  1  0  0  0
 11 12  1  0  0  0
 11 14  1  0  0  0
 12 13  1  0  0  0
 13 10  1  0  0  0
 16 10  1  0  0  0
 16 17  1  0  0  0
 18 19  2  0  0  0
 20 21  2  0  0  0
 22 17  2  0  0  0
 24 23  1  0  0  0
 28 25  1  0  0  0
 29 26  1  0  0  0
 30 31  2  0  0  0
 32 33  1  0  0  0
  8  9  2  0  0  0
 14 15  2  0  0  0
 17 18  1  0  0  0
 19 20  1  0  0  0
 21 22  1  0  0  0
 27 34  1  0  0  0
M  END
> <minimizedAffinity>
-8.07427

$$$$
CHEMBL1630793


 34 38  0  0  0  0  0  0  0  0999 V2000
   17.7951   19.1642  -18.2681 N   0  0  0  0  0  0  0  0  0  0  0  0
   20.2636   18.8052  -18.5668 C   0  0  0  0  0  0  0  0  0  0  0  0
   18.8344   18.2309  -18.7079 C   0  0  0  0  0  0  0  0  0  0  0  0
   17.8043   20.4349  -18.9841 C   0  0  0  0  0  0  0  0  0  0  0  0
   19.1429   21.1440  -18.8073 C   0  0  0  0  0  0  0  0  0  0  0  0
   20.3649   20.2536  -19.1353 C   0  0  0  0  0  0  0  0  0  0  0  0
   20.5640   20.2222  -20.6646 C   0  0  0  0  0  0  0  0  0  0  0  0
   16.8448   18.9612  -17.2770 C   0  0  0  0  0  0  0  0  0  0  0  0
   15.9786   19.8132  -17.0452 O   0  0  0  0  0  0  0  0  0  0  0  0
   15.6378   17.0282  -14.5718 N   0  0  0  0  0  0  0  0  0  0  0  0
   16.8298   17.6679  -16.4852 C   0  0  0  0  0  0  0  0  0  0  0  0
   15.6512   16.7748  -16.9058 C   0  0  0  0  0  0  0  0  0  0  0  0
   15.0158   16.2746  -15.6212 C   0  0  0  0  0  0  0  0  0  0  0  0
   16.5954   17.9143  -15.0183 C   0  0  0  0  0  0  0  0  0  0  0  0
   17.1947   18.7210  -14.3180 O   0  0  0  0  0  0  0  0  0  0  0  0
   15.3084   16.8523  -13.1725 C   0  0  0  0  0  0  0  0  0  0  0  0
   13.9712   16.1703  -12.9907 C   0  0  0  0  0  0  0  0  0  0  0  0
   13.1221   15.9796  -14.0920 C   0  0  0  0  0  0  0  0  0  0  0  0
   11.8808   15.3607  -13.9373 C   0  0  0  0  0  0  0  0  0  0  0  0
   11.4632   14.9447  -12.6757 C   0  0  0  0  0  0  0  0  0  0  0  0
   12.2887   15.1434  -11.5700 C   0  0  0  0  0  0  0  0  0  0  0  0
   13.5371   15.7513  -11.7256 C   0  0  0  0  0  0  0  0  0  0  0  0
   20.8152   18.6286  -17.2090 N   0  0  0  0  0  0  0  0  0  0  0  0
   20.2459   19.2919  -16.0396 C   0  0  0  0  0  0  0  0  0  0  0  0
   21.8125   16.5697  -17.8068 N   0  0  0  0  0  0  0  0  0  0  0  0
   23.4071   15.3075  -16.5286 N   0  0  0  0  0  0  0  0  0  0  0  0
   23.9192   16.2745  -14.4220 N   0  0  0  0  0  0  0  0  0  0  0  0
   22.6441   15.5363  -17.6001 C   0  0  0  0  0  0  0  0  0  0  0  0
   23.2622   16.2789  -15.6201 C   0  0  0  0  0  0  0  0  0  0  0  0
   23.5736   17.3814  -13.7012 C   0  0  0  0  0  0  0  0  0  0  0  0
   22.6750   18.1017  -14.4602 C   0  0  0  0  0  0  0  0  0  0  0  0
   22.4608   17.4160  -15.6999 C   0  0  0  0  0  0  0  0  0  0  0  0
   21.6874   17.5753  -16.8864 C   0  0  0  0  0  0  0  0  0  0  0  0
   24.5502   15.5399  -14.1365 H   0  0  0  0  0  0  0  0  0  0  0  0
 27 30  1  0  0  0
  1  8  1  0  0  0
 10 14  1  0  0  0
 28 26  2  0  0  0
 29 27  1  0  0  0
 31 32  1  0  0  0
 32 29  2  0  0  0
 33 23  1  0  0  0
 33 25  2  0  0  0
  2 23  1  0  0  0
  2  3  1  0  0  0
  3  1  1  0  0  0
  4  1  1  0  0  0
  4  5  1  0  0  0
  5  6  1  0  0  0
  6  7  1  0  0  0
  6  2  1  0  0  0
 11  8  1  0  0  0
 11 12  1  0  0  0
 11 14  1  0  0  0
 12 13  1  0  0  0
 13 10  1  0  0  0
 16 10  1  0  0  0
 16 17  1  0  0  0
 18 19  2  0  0  0
 20 21  2  0  0  0
 22 17  2  0  0  0
 24 23  1  0  0  0
 28 25  1  0  0  0
 29 26  1  0  0  0
 30 31  2  0  0  0
 32 33  1  0  0  0
  8  9  2  0  0  0
 14 15  2  0  0  0
 17 18  1  0  0  0
 19 20  1  0  0  0
 21 22  1  0  0  0
 27 34  1  0  0  0
M  END
> <minimizedAffinity>
-7.97306

$$$$
CHEMBL1630796


 26 29  0  0  0  0  0  0  0  0999 V2000
   10.2213   13.3432  -18.2462 N   0  0  0  0  0  0  0  0  0  0  0  0
   10.9489   13.9915  -15.9170 C   0  0  0  0  0  0  0  0  0  0  0  0
   10.4512   14.4380  -17.3115 C   0  0  0  0  0  0  0  0  0  0  0  0
    9.3213   12.3178  -17.7225 C   0  0  0  0  0  0  0  0  0  0  0  0
    9.8659   11.6888  -16.4421 C   0  0  0  0  0  0  0  0  0  0  0  0
   10.2620   12.7171  -15.3635 C   0  0  0  0  0  0  0  0  0  0  0  0
    9.0019   13.1085  -14.5697 C   0  0  0  0  0  0  0  0  0  0  0  0
   10.8213   13.1169  -19.4907 C   0  0  0  0  0  0  0  0  0  0  0  0
   10.5909   12.0600  -20.0921 O   0  0  0  0  0  0  0  0  0  0  0  0
   11.7343   14.0772  -20.1449 C   0  0  0  0  0  0  0  0  0  0  0  0
   11.6811   14.6433  -21.4056 C   0  0  0  0  0  0  0  0  0  0  0  0
   13.7277   15.3585  -20.2562 C   0  0  0  0  0  0  0  0  0  0  0  0
   12.9748   14.4814  -19.5114 C   0  0  0  0  0  0  0  0  0  0  0  0
   12.9732   15.7243  -21.7376 S   0  0  0  0  0  0  0  0  0  0  0  0
   12.4285   13.9793  -15.8169 N   0  0  0  0  0  0  0  0  0  0  0  0
   13.1279   12.8037  -16.3054 C   0  0  0  0  0  0  0  0  0  0  0  0
   14.1077   15.6053  -15.5916 N   0  0  0  0  0  0  0  0  0  0  0  0
   14.6809   16.7703  -13.5594 N   0  0  0  0  0  0  0  0  0  0  0  0
   13.2939   16.1785  -11.7120 N   0  0  0  0  0  0  0  0  0  0  0  0
   14.8178   16.4836  -14.8594 C   0  0  0  0  0  0  0  0  0  0  0  0
   13.6791   16.0662  -13.0184 C   0  0  0  0  0  0  0  0  0  0  0  0
   12.2248   15.3587  -11.4721 C   0  0  0  0  0  0  0  0  0  0  0  0
   11.9311   14.7056  -12.6512 C   0  0  0  0  0  0  0  0  0  0  0  0
   12.8631   15.1335  -13.6473 C   0  0  0  0  0  0  0  0  0  0  0  0
   13.1092   14.8875  -15.0223 C   0  0  0  0  0  0  0  0  0  0  0  0
   13.7392   16.7982  -11.0512 H   0  0  0  0  0  0  0  0  0  0  0  0
 19 22  1  0  0  0
  1  8  1  0  0  0
 20 18  2  0  0  0
 21 19  1  0  0  0
 23 24  1  0  0  0
 24 21  2  0  0  0
 25 15  1  0  0  0
 25 17  2  0  0  0
  2 15  1  0  0  0
  2  3  1  0  0  0
  3  1  1  0  0  0
  4  1  1  0  0  0
  4  5  1  0  0  0
  5  6  1  0  0  0
  6  7  1  0  0  0
  6  2  1  0  0  0
  8 10  1  0  0  0
 11 14  1  0  0  0
 12 14  1  0  0  0
 13 10  1  0  0  0
 16 15  1  0  0  0
 20 17  1  0  0  0
 21 18  1  0  0  0
 22 23  2  0  0  0
 24 25  1  0  0  0
  8  9  2  0  0  0
 10 11  2  0  0  0
 12 13  2  0  0  0
 19 26  1  0  0  0
M  END
> <minimizedAffinity>
-8.40110

$$$$
CHEMBL1630796


 26 29  0  0  0  0  0  0  0  0999 V2000
   12.7871   14.5096  -17.3702 N   0  0  0  0  0  0  0  0  0  0  0  0
   10.6855   13.9044  -18.6318 C   0  0  0  0  0  0  0  0  0  0  0  0
   11.4238   14.9004  -17.7074 C   0  0  0  0  0  0  0  0  0  0  0  0
   13.6163   14.2403  -18.5431 C   0  0  0  0  0  0  0  0  0  0  0  0
   13.0392   13.1125  -19.3957 C   0  0  0  0  0  0  0  0  0  0  0  0
   11.5562   13.3106  -19.7683 C   0  0  0  0  0  0  0  0  0  0  0  0
   11.4772   14.2163  -21.0112 C   0  0  0  0  0  0  0  0  0  0  0  0
   13.3392   14.2686  -16.1064 C   0  0  0  0  0  0  0  0  0  0  0  0
   14.4899   13.8210  -16.0223 O   0  0  0  0  0  0  0  0  0  0  0  0
   12.6201   14.5161  -14.8394 C   0  0  0  0  0  0  0  0  0  0  0  0
   11.4989   13.9003  -14.3137 C   0  0  0  0  0  0  0  0  0  0  0  0
   12.2046   15.7383  -12.8491 C   0  0  0  0  0  0  0  0  0  0  0  0
   12.9831   15.6241  -13.9767 C   0  0  0  0  0  0  0  0  0  0  0  0
   11.0140   14.5232  -12.7888 S   0  0  0  0  0  0  0  0  0  0  0  0
    9.9015   12.8983  -17.8750 N   0  0  0  0  0  0  0  0  0  0  0  0
   10.6281   11.8037  -17.2558 C   0  0  0  0  0  0  0  0  0  0  0  0
    7.7712   13.7700  -17.4098 N   0  0  0  0  0  0  0  0  0  0  0  0
    5.6697   12.7921  -18.0757 N   0  0  0  0  0  0  0  0  0  0  0  0
    5.9242   10.8109  -19.3782 N   0  0  0  0  0  0  0  0  0  0  0  0
    6.4278   13.7186  -17.4775 C   0  0  0  0  0  0  0  0  0  0  0  0
    6.4301   11.8623  -18.6667 C   0  0  0  0  0  0  0  0  0  0  0  0
    6.9489   10.0592  -19.8858 C   0  0  0  0  0  0  0  0  0  0  0  0
    8.1311   10.6429  -19.4797 C   0  0  0  0  0  0  0  0  0  0  0  0
    7.8177   11.7884  -18.6839 C   0  0  0  0  0  0  0  0  0  0  0  0
    8.5244   12.8095  -17.9984 C   0  0  0  0  0  0  0  0  0  0  0  0
    4.9362   10.6505  -19.5089 H   0  0  0  0  0  0  0  0  0  0  0  0
 19 22  1  0  0  0
  1  8  1  0  0  0
 20 18  2  0  0  0
 21 19  1  0  0  0
 23 24  1  0  0  0
 24 21  2  0  0  0
 25 15  1  0  0  0
 25 17  2  0  0  0
  2 15  1  0  0  0
  2  3  1  0  0  0
  3  1  1  0  0  0
  4  1  1  0  0  0
  4  5  1  0  0  0
  5  6  1  0  0  0
  6  7  1  0  0  0
  6  2  1  0  0  0
  8 10  1  0  0  0
 11 14  1  0  0  0
 12 14  1  0  0  0
 13 10  1  0  0  0
 16 15  1  0  0  0
 20 17  1  0  0  0
 21 18  1  0  0  0
 22 23  2  0  0  0
 24 25  1  0  0  0
  8  9  2  0  0  0
 10 11  2  0  0  0
 12 13  2  0  0  0
 19 26  1  0  0  0
M  END
> <minimizedAffinity>
-8.10544

$$$$
CHEMBL1630796


 26 29  0  0  0  0  0  0  0  0999 V2000
   11.4806   13.9453  -18.9117 N   0  0  0  0  0  0  0  0  0  0  0  0
   10.4493   13.9396  -16.6071 C   0  0  0  0  0  0  0  0  0  0  0  0
   11.0619   14.7518  -17.7718 C   0  0  0  0  0  0  0  0  0  0  0  0
   10.4178   13.0882  -19.4328 C   0  0  0  0  0  0  0  0  0  0  0  0
    9.9087   12.1129  -18.3739 C   0  0  0  0  0  0  0  0  0  0  0  0
    9.5093   12.7883  -17.0466 C   0  0  0  0  0  0  0  0  0  0  0  0
    8.0678   13.3144  -17.1757 C   0  0  0  0  0  0  0  0  0  0  0  0
   12.7575   13.8226  -19.4726 C   0  0  0  0  0  0  0  0  0  0  0  0
   12.9499   12.9885  -20.3664 O   0  0  0  0  0  0  0  0  0  0  0  0
   13.9159   14.6396  -19.0551 C   0  0  0  0  0  0  0  0  0  0  0  0
   14.6088   14.6610  -17.8584 C   0  0  0  0  0  0  0  0  0  0  0  0
   15.4928   16.3846  -19.3647 C   0  0  0  0  0  0  0  0  0  0  0  0
   14.4303   15.6978  -19.9032 C   0  0  0  0  0  0  0  0  0  0  0  0
   15.9068   15.7847  -17.8265 S   0  0  0  0  0  0  0  0  0  0  0  0
   11.4578   13.5498  -15.5919 N   0  0  0  0  0  0  0  0  0  0  0  0
   12.3355   12.4360  -15.9062 C   0  0  0  0  0  0  0  0  0  0  0  0
   10.3397   13.5810  -13.5272 N   0  0  0  0  0  0  0  0  0  0  0  0
   10.9971   14.8504  -11.5850 N   0  0  0  0  0  0  0  0  0  0  0  0
   13.0170   16.0777  -11.9022 N   0  0  0  0  0  0  0  0  0  0  0  0
   10.2042   14.0081  -12.2579 C   0  0  0  0  0  0  0  0  0  0  0  0
   12.0305   15.2401  -12.3414 C   0  0  0  0  0  0  0  0  0  0  0  0
   13.9455   16.2587  -12.8910 C   0  0  0  0  0  0  0  0  0  0  0  0
   13.5336   15.5258  -13.9847 C   0  0  0  0  0  0  0  0  0  0  0  0
   12.3005   14.8813  -13.6565 C   0  0  0  0  0  0  0  0  0  0  0  0
   11.3823   14.0010  -14.2841 C   0  0  0  0  0  0  0  0  0  0  0  0
   13.0400   16.4725  -10.9733 H   0  0  0  0  0  0  0  0  0  0  0  0
 19 22  1  0  0  0
  1  8  1  0  0  0
 20 18  2  0  0  0
 21 19  1  0  0  0
 23 24  1  0  0  0
 24 21  2  0  0  0
 25 15  1  0  0  0
 25 17  2  0  0  0
  2 15  1  0  0  0
  2  3  1  0  0  0
  3  1  1  0  0  0
  4  1  1  0  0  0
  4  5  1  0  0  0
  5  6  1  0  0  0
  6  7  1  0  0  0
  6  2  1  0  0  0
  8 10  1  0  0  0
 11 14  1  0  0  0
 12 14  1  0  0  0
 13 10  1  0  0  0
 16 15  1  0  0  0
 20 17  1  0  0  0
 21 18  1  0  0  0
 22 23  2  0  0  0
 24 25  1  0  0  0
  8  9  2  0  0  0
 10 11  2  0  0  0
 12 13  2  0  0  0
 19 26  1  0  0  0
M  END
> <minimizedAffinity>
-8.07203

$$$$
CHEMBL1630796


 26 29  0  0  0  0  0  0  0  0999 V2000
   13.6217   14.8577  -18.1063 N   0  0  0  0  0  0  0  0  0  0  0  0
   11.4459   13.7802  -17.4135 C   0  0  0  0  0  0  0  0  0  0  0  0
   12.2966   15.0660  -17.5355 C   0  0  0  0  0  0  0  0  0  0  0  0
   13.5918   14.1790  -19.4002 C   0  0  0  0  0  0  0  0  0  0  0  0
   12.9402   12.8017  -19.3004 C   0  0  0  0  0  0  0  0  0  0  0  0
   11.5556   12.8160  -18.6220 C   0  0  0  0  0  0  0  0  0  0  0  0
   10.4942   13.1808  -19.6764 C   0  0  0  0  0  0  0  0  0  0  0  0
   14.8710   15.1245  -17.5334 C   0  0  0  0  0  0  0  0  0  0  0  0
   15.8980   14.7637  -18.1223 O   0  0  0  0  0  0  0  0  0  0  0  0
   15.0464   15.8208  -16.2418 C   0  0  0  0  0  0  0  0  0  0  0  0
   14.4637   15.5799  -15.0110 C   0  0  0  0  0  0  0  0  0  0  0  0
   15.8890   17.5732  -14.8829 C   0  0  0  0  0  0  0  0  0  0  0  0
   15.8434   17.0286  -16.1447 C   0  0  0  0  0  0  0  0  0  0  0  0
   14.9779   16.6559  -13.7756 S   0  0  0  0  0  0  0  0  0  0  0  0
   11.5941   13.1221  -16.0927 N   0  0  0  0  0  0  0  0  0  0  0  0
   12.6071   12.0893  -15.9637 C   0  0  0  0  0  0  0  0  0  0  0  0
    9.3985   12.7283  -15.3588 N   0  0  0  0  0  0  0  0  0  0  0  0
    8.4673   13.4344  -13.2493 N   0  0  0  0  0  0  0  0  0  0  0  0
   10.0429   14.5539  -11.8525 N   0  0  0  0  0  0  0  0  0  0  0  0
    8.4142   12.8411  -14.4476 C   0  0  0  0  0  0  0  0  0  0  0  0
    9.6913   13.9219  -13.0120 C   0  0  0  0  0  0  0  0  0  0  0  0
   11.3651   14.9038  -11.8981 C   0  0  0  0  0  0  0  0  0  0  0  0
   11.8605   14.4917  -13.1179 C   0  0  0  0  0  0  0  0  0  0  0  0
   10.7983   13.8767  -13.8508 C   0  0  0  0  0  0  0  0  0  0  0  0
   10.6263   13.2445  -15.1089 C   0  0  0  0  0  0  0  0  0  0  0  0
    9.4044   14.7072  -11.0857 H   0  0  0  0  0  0  0  0  0  0  0  0
 19 22  1  0  0  0
  1  8  1  0  0  0
 20 18  2  0  0  0
 21 19  1  0  0  0
 23 24  1  0  0  0
 24 21  2  0  0  0
 25 15  1  0  0  0
 25 17  2  0  0  0
  2 15  1  0  0  0
  2  3  1  0  0  0
  3  1  1  0  0  0
  4  1  1  0  0  0
  4  5  1  0  0  0
  5  6  1  0  0  0
  6  7  1  0  0  0
  6  2  1  0  0  0
  8 10  1  0  0  0
 11 14  1  0  0  0
 12 14  1  0  0  0
 13 10  1  0  0  0
 16 15  1  0  0  0
 20 17  1  0  0  0
 21 18  1  0  0  0
 22 23  2  0  0  0
 24 25  1  0  0  0
  8  9  2  0  0  0
 10 11  2  0  0  0
 12 13  2  0  0  0
 19 26  1  0  0  0
M  END
> <minimizedAffinity>
-7.71089

$$$$
CHEMBL1630796


 26 29  0  0  0  0  0  0  0  0999 V2000
   12.0227   14.2390  -19.0944 N   0  0  0  0  0  0  0  0  0  0  0  0
   11.0938   14.0868  -16.7516 C   0  0  0  0  0  0  0  0  0  0  0  0
   11.6111   14.9763  -17.9061 C   0  0  0  0  0  0  0  0  0  0  0  0
   10.9857   13.3454  -19.6062 C   0  0  0  0  0  0  0  0  0  0  0  0
   10.5758   12.3031  -18.5684 C   0  0  0  0  0  0  0  0  0  0  0  0
   10.1986   12.9034  -17.1991 C   0  0  0  0  0  0  0  0  0  0  0  0
    8.7268   13.3537  -17.2472 C   0  0  0  0  0  0  0  0  0  0  0  0
   13.2788   14.2088  -19.7118 C   0  0  0  0  0  0  0  0  0  0  0  0
   13.4768   13.4219  -20.6464 O   0  0  0  0  0  0  0  0  0  0  0  0
   14.4089   15.0716  -19.3089 C   0  0  0  0  0  0  0  0  0  0  0  0
   15.1165   15.1202  -18.1218 C   0  0  0  0  0  0  0  0  0  0  0  0
   15.9097   16.8792  -19.6377 C   0  0  0  0  0  0  0  0  0  0  0  0
   14.8686   16.1503  -20.1626 C   0  0  0  0  0  0  0  0  0  0  0  0
   16.3684   16.2953  -18.1059 S   0  0  0  0  0  0  0  0  0  0  0  0
   12.1646   13.7141  -15.7956 N   0  0  0  0  0  0  0  0  0  0  0  0
   12.7592   12.3956  -15.9292 C   0  0  0  0  0  0  0  0  0  0  0  0
   13.4364   15.2975  -14.6166 N   0  0  0  0  0  0  0  0  0  0  0  0
   13.0654   15.9915  -12.3371 N   0  0  0  0  0  0  0  0  0  0  0  0
   11.1643   14.9572  -11.3358 N   0  0  0  0  0  0  0  0  0  0  0  0
   13.7128   16.0093  -13.5081 C   0  0  0  0  0  0  0  0  0  0  0  0
   12.0222   15.1538  -12.3812 C   0  0  0  0  0  0  0  0  0  0  0  0
   10.1856   14.0725  -11.6996 C   0  0  0  0  0  0  0  0  0  0  0  0
   10.4340   13.6933  -13.0025 C   0  0  0  0  0  0  0  0  0  0  0  0
   11.6158   14.3625  -13.4489 C   0  0  0  0  0  0  0  0  0  0  0  0
   12.3871   14.4401  -14.6367 C   0  0  0  0  0  0  0  0  0  0  0  0
   11.2539   15.4253  -10.4459 H   0  0  0  0  0  0  0  0  0  0  0  0
 19 22  1  0  0  0
  1  8  1  0  0  0
 20 18  2  0  0  0
 21 19  1  0  0  0
 23 24  1  0  0  0
 24 21  2  0  0  0
 25 15  1  0  0  0
 25 17  2  0  0  0
  2 15  1  0  0  0
  2  3  1  0  0  0
  3  1  1  0  0  0
  4  1  1  0  0  0
  4  5  1  0  0  0
  5  6  1  0  0  0
  6  7  1  0  0  0
  6  2  1  0  0  0
  8 10  1  0  0  0
 11 14  1  0  0  0
 12 14  1  0  0  0
 13 10  1  0  0  0
 16 15  1  0  0  0
 20 17  1  0  0  0
 21 18  1  0  0  0
 22 23  2  0  0  0
 24 25  1  0  0  0
  8  9  2  0  0  0
 10 11  2  0  0  0
 12 13  2  0  0  0
 19 26  1  0  0  0
M  END
> <minimizedAffinity>
-7.64871

$$$$
CHEMBL1630796


 26 29  0  0  0  0  0  0  0  0999 V2000
   12.8604   14.1853  -19.6884 N   0  0  0  0  0  0  0  0  0  0  0  0
   10.8004   13.1537  -20.7213 C   0  0  0  0  0  0  0  0  0  0  0  0
   11.4301   14.3255  -19.9327 C   0  0  0  0  0  0  0  0  0  0  0  0
   13.6338   13.9584  -20.9075 C   0  0  0  0  0  0  0  0  0  0  0  0
   13.1897   12.6885  -21.6298 C   0  0  0  0  0  0  0  0  0  0  0  0
   11.6709   12.6172  -21.8861 C   0  0  0  0  0  0  0  0  0  0  0  0
   11.3518   13.3962  -23.1755 C   0  0  0  0  0  0  0  0  0  0  0  0
   13.5365   14.1374  -18.4634 C   0  0  0  0  0  0  0  0  0  0  0  0
   14.7485   13.8870  -18.4487 O   0  0  0  0  0  0  0  0  0  0  0  0
   12.8820   14.3678  -17.1587 C   0  0  0  0  0  0  0  0  0  0  0  0
   11.8079   15.1738  -16.8283 C   0  0  0  0  0  0  0  0  0  0  0  0
   12.7203   14.1294  -14.8040 C   0  0  0  0  0  0  0  0  0  0  0  0
   13.4259   13.8035  -15.9383 C   0  0  0  0  0  0  0  0  0  0  0  0
   11.3854   15.1220  -15.1648 S   0  0  0  0  0  0  0  0  0  0  0  0
   10.2516   12.0995  -19.8343 N   0  0  0  0  0  0  0  0  0  0  0  0
   10.1312   10.7573  -20.3763 C   0  0  0  0  0  0  0  0  0  0  0  0
    8.4758   13.1773  -18.7392 N   0  0  0  0  0  0  0  0  0  0  0  0
    8.1098   13.2282  -16.3561 N   0  0  0  0  0  0  0  0  0  0  0  0
    9.7233   11.9724  -15.1289 N   0  0  0  0  0  0  0  0  0  0  0  0
    7.8101   13.5323  -17.6244 C   0  0  0  0  0  0  0  0  0  0  0  0
    9.2035   12.4587  -16.2954 C   0  0  0  0  0  0  0  0  0  0  0  0
   10.8167   11.1945  -15.3976 C   0  0  0  0  0  0  0  0  0  0  0  0
   10.9988   11.1948  -16.7651 C   0  0  0  0  0  0  0  0  0  0  0  0
    9.9854   12.0132  -17.3543 C   0  0  0  0  0  0  0  0  0  0  0  0
    9.5920   12.4132  -18.6570 C   0  0  0  0  0  0  0  0  0  0  0  0
    9.3253   12.1605  -14.2204 H   0  0  0  0  0  0  0  0  0  0  0  0
 19 22  1  0  0  0
  1  8  1  0  0  0
 20 18  2  0  0  0
 21 19  1  0  0  0
 23 24  1  0  0  0
 24 21  2  0  0  0
 25 15  1  0  0  0
 25 17  2  0  0  0
  2 15  1  0  0  0
  2  3  1  0  0  0
  3  1  1  0  0  0
  4  1  1  0  0  0
  4  5  1  0  0  0
  5  6  1  0  0  0
  6  7  1  0  0  0
  6  2  1  0  0  0
  8 10  1  0  0  0
 11 14  1  0  0  0
 12 14  1  0  0  0
 13 10  1  0  0  0
 16 15  1  0  0  0
 20 17  1  0  0  0
 21 18  1  0  0  0
 22 23  2  0  0  0
 24 25  1  0  0  0
  8  9  2  0  0  0
 10 11  2  0  0  0
 12 13  2  0  0  0
 19 26  1  0  0  0
M  END
> <minimizedAffinity>
-7.44886

$$$$
CHEMBL1630796


 26 29  0  0  0  0  0  0  0  0999 V2000
   12.1000   13.4119  -18.7597 N   0  0  0  0  0  0  0  0  0  0  0  0
   12.5794   13.9949  -16.3503 C   0  0  0  0  0  0  0  0  0  0  0  0
   12.2052   12.9158  -17.3930 C   0  0  0  0  0  0  0  0  0  0  0  0
   13.2975   14.1181  -19.2103 C   0  0  0  0  0  0  0  0  0  0  0  0
   13.6037   15.3283  -18.3311 C   0  0  0  0  0  0  0  0  0  0  0  0
   13.6546   15.0057  -16.8241 C   0  0  0  0  0  0  0  0  0  0  0  0
   15.0576   14.4713  -16.4818 C   0  0  0  0  0  0  0  0  0  0  0  0
   10.9924   13.3850  -19.6156 C   0  0  0  0  0  0  0  0  0  0  0  0
   11.0528   13.9701  -20.7046 O   0  0  0  0  0  0  0  0  0  0  0  0
    9.7276   12.6915  -19.2945 C   0  0  0  0  0  0  0  0  0  0  0  0
    9.1710   11.5500  -19.8421 C   0  0  0  0  0  0  0  0  0  0  0  0
    7.6414   12.5088  -18.1801 C   0  0  0  0  0  0  0  0  0  0  0  0
    8.7815   13.2580  -18.3525 C   0  0  0  0  0  0  0  0  0  0  0  0
    7.6680   11.1044  -19.1416 S   0  0  0  0  0  0  0  0  0  0  0  0
   11.3887   14.6195  -15.7243 N   0  0  0  0  0  0  0  0  0  0  0  0
   10.6364   15.5786  -16.5142 C   0  0  0  0  0  0  0  0  0  0  0  0
   10.0389   13.9263  -13.9322 N   0  0  0  0  0  0  0  0  0  0  0  0
   10.4759   14.3340  -11.5958 N   0  0  0  0  0  0  0  0  0  0  0  0
   12.5279   15.4858  -11.2091 N   0  0  0  0  0  0  0  0  0  0  0  0
    9.7603   13.8493  -12.6175 C   0  0  0  0  0  0  0  0  0  0  0  0
   11.5929   14.9272  -12.0345 C   0  0  0  0  0  0  0  0  0  0  0  0
   13.5661   15.9790  -11.9517 C   0  0  0  0  0  0  0  0  0  0  0  0
   13.2785   15.7349  -13.2786 C   0  0  0  0  0  0  0  0  0  0  0  0
   12.0110   15.0777  -13.3513 C   0  0  0  0  0  0  0  0  0  0  0  0
   11.1654   14.5472  -14.3589 C   0  0  0  0  0  0  0  0  0  0  0  0
   12.4459   15.4993  -10.2030 H   0  0  0  0  0  0  0  0  0  0  0  0
 19 22  1  0  0  0
  1  8  1  0  0  0
 20 18  2  0  0  0
 21 19  1  0  0  0
 23 24  1  0  0  0
 24 21  2  0  0  0
 25 15  1  0  0  0
 25 17  2  0  0  0
  2 15  1  0  0  0
  2  3  1  0  0  0
  3  1  1  0  0  0
  4  1  1  0  0  0
  4  5  1  0  0  0
  5  6  1  0  0  0
  6  7  1  0  0  0
  6  2  1  0  0  0
  8 10  1  0  0  0
 11 14  1  0  0  0
 12 14  1  0  0  0
 13 10  1  0  0  0
 16 15  1  0  0  0
 20 17  1  0  0  0
 21 18  1  0  0  0
 22 23  2  0  0  0
 24 25  1  0  0  0
  8  9  2  0  0  0
 10 11  2  0  0  0
 12 13  2  0  0  0
 19 26  1  0  0  0
M  END
> <minimizedAffinity>
-7.40984

$$$$
CHEMBL1630796


 26 29  0  0  0  0  0  0  0  0999 V2000
   13.1245   15.2812  -15.9944 N   0  0  0  0  0  0  0  0  0  0  0  0
   11.9581   14.2845  -17.9996 C   0  0  0  0  0  0  0  0  0  0  0  0
   11.9202   15.2791  -16.8160 C   0  0  0  0  0  0  0  0  0  0  0  0
   14.3471   15.4998  -16.7645 C   0  0  0  0  0  0  0  0  0  0  0  0
   14.5469   14.4200  -17.8255 C   0  0  0  0  0  0  0  0  0  0  0  0
   13.3202   14.2070  -18.7351 C   0  0  0  0  0  0  0  0  0  0  0  0
   13.3597   15.2496  -19.8677 C   0  0  0  0  0  0  0  0  0  0  0  0
   13.2499   15.0030  -14.6281 C   0  0  0  0  0  0  0  0  0  0  0  0
   14.3782   14.9309  -14.1246 O   0  0  0  0  0  0  0  0  0  0  0  0
   12.0977   14.7816  -13.7296 C   0  0  0  0  0  0  0  0  0  0  0  0
   11.9088   15.1537  -12.4111 C   0  0  0  0  0  0  0  0  0  0  0  0
    9.9927   13.8318  -13.1870 C   0  0  0  0  0  0  0  0  0  0  0  0
   10.9725   13.9648  -14.1425 C   0  0  0  0  0  0  0  0  0  0  0  0
   10.3900   14.6796  -11.7655 S   0  0  0  0  0  0  0  0  0  0  0  0
   11.3755   12.9651  -17.6541 N   0  0  0  0  0  0  0  0  0  0  0  0
   12.1384   12.1017  -16.7695 C   0  0  0  0  0  0  0  0  0  0  0  0
    9.1619   12.1827  -17.7001 N   0  0  0  0  0  0  0  0  0  0  0  0
    8.0235   11.2802  -19.6250 N   0  0  0  0  0  0  0  0  0  0  0  0
    9.3520   11.3127  -21.6051 N   0  0  0  0  0  0  0  0  0  0  0  0
    8.1081   11.6415  -18.3393 C   0  0  0  0  0  0  0  0  0  0  0  0
    9.1638   11.5497  -20.2725 C   0  0  0  0  0  0  0  0  0  0  0  0
   10.6028   11.7250  -21.9769 C   0  0  0  0  0  0  0  0  0  0  0  0
   11.2245   12.2269  -20.8523 C   0  0  0  0  0  0  0  0  0  0  0  0
   10.3241   12.1066  -19.7484 C   0  0  0  0  0  0  0  0  0  0  0  0
   10.3147   12.4313  -18.3677 C   0  0  0  0  0  0  0  0  0  0  0  0
    8.6464   10.9103  -22.2045 H   0  0  0  0  0  0  0  0  0  0  0  0
 19 22  1  0  0  0
  1  8  1  0  0  0
 20 18  2  0  0  0
 21 19  1  0  0  0
 23 24  1  0  0  0
 24 21  2  0  0  0
 25 15  1  0  0  0
 25 17  2  0  0  0
  2 15  1  0  0  0
  2  3  1  0  0  0
  3  1  1  0  0  0
  4  1  1  0  0  0
  4  5  1  0  0  0
  5  6  1  0  0  0
  6  7  1  0  0  0
  6  2  1  0  0  0
  8 10  1  0  0  0
 11 14  1  0  0  0
 12 14  1  0  0  0
 13 10  1  0  0  0
 16 15  1  0  0  0
 20 17  1  0  0  0
 21 18  1  0  0  0
 22 23  2  0  0  0
 24 25  1  0  0  0
  8  9  2  0  0  0
 10 11  2  0  0  0
 12 13  2  0  0  0
 19 26  1  0  0  0
M  END
> <minimizedAffinity>
-7.06952

$$$$
CHEMBL1630796


 26 29  0  0  0  0  0  0  0  0999 V2000
   10.9469   12.0042  -20.4295 N   0  0  0  0  0  0  0  0  0  0  0  0
   12.7482   13.2575  -21.6782 C   0  0  0  0  0  0  0  0  0  0  0  0
   12.3546   12.3815  -20.4662 C   0  0  0  0  0  0  0  0  0  0  0  0
   10.4921   11.3549  -21.6573 C   0  0  0  0  0  0  0  0  0  0  0  0
   10.6676   12.2611  -22.8736 C   0  0  0  0  0  0  0  0  0  0  0  0
   12.0892   12.8408  -23.0177 C   0  0  0  0  0  0  0  0  0  0  0  0
   12.9744   11.8029  -23.7322 C   0  0  0  0  0  0  0  0  0  0  0  0
    9.9953   12.2768  -19.4395 C   0  0  0  0  0  0  0  0  0  0  0  0
    8.8099   11.9827  -19.6399 O   0  0  0  0  0  0  0  0  0  0  0  0
   10.3210   12.9099  -18.1445 C   0  0  0  0  0  0  0  0  0  0  0  0
   10.8039   12.3529  -16.9745 C   0  0  0  0  0  0  0  0  0  0  0  0
   10.3657   14.7440  -16.6407 C   0  0  0  0  0  0  0  0  0  0  0  0
   10.0290   14.3096  -17.9011 C   0  0  0  0  0  0  0  0  0  0  0  0
   11.0407   13.4893  -15.7093 S   0  0  0  0  0  0  0  0  0  0  0  0
   12.6657   14.7086  -21.3833 N   0  0  0  0  0  0  0  0  0  0  0  0
   11.5880   15.4621  -22.0003 C   0  0  0  0  0  0  0  0  0  0  0  0
   14.4271   16.2478  -21.5902 N   0  0  0  0  0  0  0  0  0  0  0  0
   15.9771   16.8618  -19.8477 N   0  0  0  0  0  0  0  0  0  0  0  0
   15.5213   15.7955  -17.7639 N   0  0  0  0  0  0  0  0  0  0  0  0
   15.4802   16.9198  -21.0889 C   0  0  0  0  0  0  0  0  0  0  0  0
   15.2598   16.0275  -19.0851 C   0  0  0  0  0  0  0  0  0  0  0  0
   14.5960   14.9256  -17.2543 C   0  0  0  0  0  0  0  0  0  0  0  0
   13.7336   14.5921  -18.2780 C   0  0  0  0  0  0  0  0  0  0  0  0
   14.1540   15.2749  -19.4616 C   0  0  0  0  0  0  0  0  0  0  0  0
   13.7241   15.3931  -20.8081 C   0  0  0  0  0  0  0  0  0  0  0  0
   16.2801   16.2319  -17.2611 H   0  0  0  0  0  0  0  0  0  0  0  0
 19 22  1  0  0  0
  1  8  1  0  0  0
 20 18  2  0  0  0
 21 19  1  0  0  0
 23 24  1  0  0  0
 24 21  2  0  0  0
 25 15  1  0  0  0
 25 17  2  0  0  0
  2 15  1  0  0  0
  2  3  1  0  0  0
  3  1  1  0  0  0
  4  1  1  0  0  0
  4  5  1  0  0  0
  5  6  1  0  0  0
  6  7  1  0  0  0
  6  2  1  0  0  0
  8 10  1  0  0  0
 11 14  1  0  0  0
 12 14  1  0  0  0
 13 10  1  0  0  0
 16 15  1  0  0  0
 20 17  1  0  0  0
 21 18  1  0  0  0
 22 23  2  0  0  0
 24 25  1  0  0  0
  8  9  2  0  0  0
 10 11  2  0  0  0
 12 13  2  0  0  0
 19 26  1  0  0  0
M  END
> <minimizedAffinity>
-6.30440

$$$$
CHEMBL3693610


 29 33  0  0  0  0  0  0  0  0999 V2000
   14.1672   14.6931  -15.0544 O   0  0  0  0  0  0  0  0  0  0  0  0
   13.6072   14.2824  -16.0700 C   0  0  0  0  0  0  0  0  0  0  0  0
   15.1368   15.5451  -17.4689 C   0  0  0  0  0  0  0  0  0  0  0  0
   15.4085   15.6368  -18.9564 C   0  0  0  0  0  0  0  0  0  0  0  0
   14.0135   15.5778  -19.5542 C   0  0  0  0  0  0  0  0  0  0  0  0
   13.2475   14.5766  -18.6530 C   0  0  0  0  0  0  0  0  0  0  0  0
   13.3031   13.1548  -19.2386 C   0  0  0  0  0  0  0  0  0  0  0  0
   11.8679   12.6236  -19.2554 C   0  0  0  0  0  0  0  0  0  0  0  0
   11.7498   14.9508  -18.6232 C   0  0  0  0  0  0  0  0  0  0  0  0
   13.9529   14.7092  -17.3448 N   0  0  0  0  0  0  0  0  0  0  0  0
   11.0457   13.6843  -18.7254 N   0  0  0  0  0  0  0  0  0  0  0  0
    9.6945   13.6268  -18.4880 C   0  0  0  0  0  0  0  0  0  0  0  0
    7.8094   14.6656  -17.5508 C   0  0  0  0  0  0  0  0  0  0  0  0
    7.5200   12.6419  -18.3838 C   0  0  0  0  0  0  0  0  0  0  0  0
    7.7331   10.6148  -19.3064 C   0  0  0  0  0  0  0  0  0  0  0  0
    8.9597   11.2408  -19.3842 C   0  0  0  0  0  0  0  0  0  0  0  0
    8.8469   12.5310  -18.7804 C   0  0  0  0  0  0  0  0  0  0  0  0
    9.1193   14.6930  -17.8604 N   0  0  0  0  0  0  0  0  0  0  0  0
    6.9337   13.6805  -17.7773 N   0  0  0  0  0  0  0  0  0  0  0  0
    6.8683   11.4812  -18.6947 N   0  0  0  0  0  0  0  0  0  0  0  0
    5.8956   11.3138  -18.4808 H   0  0  0  0  0  0  0  0  0  0  0  0
   12.5736   13.2561  -15.8745 C   0  0  0  0  0  0  0  0  0  0  0  0
   12.9161   11.9122  -16.0548 C   0  0  0  0  0  0  0  0  0  0  0  0
   11.9677   10.9176  -15.8212 C   0  0  0  0  0  0  0  0  0  0  0  0
   10.6936   11.2673  -15.3699 C   0  0  0  0  0  0  0  0  0  0  0  0
   10.3718   12.6102  -15.1264 C   0  0  0  0  0  0  0  0  0  0  0  0
   11.3202   13.6097  -15.3670 C   0  0  0  0  0  0  0  0  0  0  0  0
    9.0723   12.9486  -14.6216 C   0  0  0  0  0  0  0  0  0  0  0  0
    8.0156   13.1917  -14.2093 N   0  0  0  0  0  0  0  0  0  0  0  0
  2 10  1  0  0  0
  2 22  1  0  0  0
  3 10  1  0  0  0
  3  4  1  0  0  0
  4  5  1  0  0  0
  5  6  1  0  0  0
  6  7  1  0  0  0
  6 10  1  0  0  0
  7  8  1  0  0  0
  8 11  1  0  0  0
  9 11  1  0  0  0
  9  6  1  0  0  0
 13 18  2  0  0  0
 14 19  2  0  0  0
 14 20  1  0  0  0
 16 17  1  0  0  0
 17 12  2  0  0  0
 23 24  2  0  0  0
 25 26  2  0  0  0
 26 28  1  0  0  0
 27 22  2  0  0  0
 11 12  1  0  0  0
 20 15  1  0  0  0
  2  1  2  0  0  0
 12 18  1  0  0  0
 13 19  1  0  0  0
 15 16  2  0  0  0
 17 14  1  0  0  0
 22 23  1  0  0  0
 24 25  1  0  0  0
 26 27  1  0  0  0
 28 29  3  0  0  0
 20 21  1  0  0  0
M  END
> <minimizedAffinity>
-7.34679

$$$$
CHEMBL3693610


 29 33  0  0  0  0  0  0  0  0999 V2000
   10.4109   14.8962  -13.5622 O   0  0  0  0  0  0  0  0  0  0  0  0
   11.2078   14.5004  -14.4118 C   0  0  0  0  0  0  0  0  0  0  0  0
   12.9138   16.0057  -13.5664 C   0  0  0  0  0  0  0  0  0  0  0  0
   14.3871   16.2260  -13.8416 C   0  0  0  0  0  0  0  0  0  0  0  0
   14.4721   16.0651  -15.3495 C   0  0  0  0  0  0  0  0  0  0  0  0
   13.4671   14.9315  -15.6757 C   0  0  0  0  0  0  0  0  0  0  0  0
   14.1748   13.5662  -15.7265 C   0  0  0  0  0  0  0  0  0  0  0  0
   13.7505   12.8929  -17.0338 C   0  0  0  0  0  0  0  0  0  0  0  0
   12.8877   15.1472  -17.0905 C   0  0  0  0  0  0  0  0  0  0  0  0
   12.4746   15.0464  -14.5676 N   0  0  0  0  0  0  0  0  0  0  0  0
   12.8674   13.8251  -17.6921 N   0  0  0  0  0  0  0  0  0  0  0  0
   12.1874   13.6132  -18.8660 C   0  0  0  0  0  0  0  0  0  0  0  0
   10.7369   12.2261  -20.0838 C   0  0  0  0  0  0  0  0  0  0  0  0
   11.5793   13.9660  -21.1496 C   0  0  0  0  0  0  0  0  0  0  0  0
   12.6908   15.7986  -21.7916 C   0  0  0  0  0  0  0  0  0  0  0  0
   12.9782   15.5800  -20.4605 C   0  0  0  0  0  0  0  0  0  0  0  0
   12.2916   14.3999  -20.0384 C   0  0  0  0  0  0  0  0  0  0  0  0
   11.3820   12.5142  -18.9378 N   0  0  0  0  0  0  0  0  0  0  0  0
   10.7770   12.8990  -21.2389 N   0  0  0  0  0  0  0  0  0  0  0  0
   11.8383   14.8072  -22.1956 N   0  0  0  0  0  0  0  0  0  0  0  0
   11.4519   14.6819  -23.1202 H   0  0  0  0  0  0  0  0  0  0  0  0
   10.7726   13.3626  -15.2338 C   0  0  0  0  0  0  0  0  0  0  0  0
   11.3826   12.1191  -15.0400 C   0  0  0  0  0  0  0  0  0  0  0  0
   10.9484   11.0128  -15.7686 C   0  0  0  0  0  0  0  0  0  0  0  0
    9.8805   11.1446  -16.6581 C   0  0  0  0  0  0  0  0  0  0  0  0
    9.2267   12.3765  -16.8032 C   0  0  0  0  0  0  0  0  0  0  0  0
    9.6657   13.4890  -16.0780 C   0  0  0  0  0  0  0  0  0  0  0  0
    8.1035   12.4843  -17.6891 C   0  0  0  0  0  0  0  0  0  0  0  0
    7.1760   12.5663  -18.3811 N   0  0  0  0  0  0  0  0  0  0  0  0
  2 10  1  0  0  0
  2 22  1  0  0  0
  3 10  1  0  0  0
  3  4  1  0  0  0
  4  5  1  0  0  0
  5  6  1  0  0  0
  6  7  1  0  0  0
  6 10  1  0  0  0
  7  8  1  0  0  0
  8 11  1  0  0  0
  9 11  1  0  0  0
  9  6  1  0  0  0
 13 18  2  0  0  0
 14 19  2  0  0  0
 14 20  1  0  0  0
 16 17  1  0  0  0
 17 12  2  0  0  0
 23 24  2  0  0  0
 25 26  2  0  0  0
 26 28  1  0  0  0
 27 22  2  0  0  0
 11 12  1  0  0  0
 20 15  1  0  0  0
  2  1  2  0  0  0
 12 18  1  0  0  0
 13 19  1  0  0  0
 15 16  2  0  0  0
 17 14  1  0  0  0
 22 23  1  0  0  0
 24 25  1  0  0  0
 26 27  1  0  0  0
 28 29  3  0  0  0
 20 21  1  0  0  0
M  END
> <minimizedAffinity>
-6.66463

$$$$
CHEMBL3693610


 29 33  0  0  0  0  0  0  0  0999 V2000
    9.1366   14.2085  -18.7181 O   0  0  0  0  0  0  0  0  0  0  0  0
   10.1584   13.8791  -18.1171 C   0  0  0  0  0  0  0  0  0  0  0  0
    8.8657   13.3569  -16.1302 C   0  0  0  0  0  0  0  0  0  0  0  0
    9.1636   12.7174  -14.7897 C   0  0  0  0  0  0  0  0  0  0  0  0
   10.5267   13.2904  -14.4427 C   0  0  0  0  0  0  0  0  0  0  0  0
   11.2739   13.3616  -15.7985 C   0  0  0  0  0  0  0  0  0  0  0  0
   12.1237   12.0992  -16.0257 C   0  0  0  0  0  0  0  0  0  0  0  0
   13.5251   12.5709  -16.4207 C   0  0  0  0  0  0  0  0  0  0  0  0
   12.2780   14.5343  -15.7732 C   0  0  0  0  0  0  0  0  0  0  0  0
   10.1586   13.5124  -16.7782 N   0  0  0  0  0  0  0  0  0  0  0  0
   13.4780   14.0130  -16.4046 N   0  0  0  0  0  0  0  0  0  0  0  0
   14.4924   14.8655  -16.7644 C   0  0  0  0  0  0  0  0  0  0  0  0
   16.1650   15.3955  -18.3241 C   0  0  0  0  0  0  0  0  0  0  0  0
   16.0781   16.6329  -16.4981 C   0  0  0  0  0  0  0  0  0  0  0  0
   15.6176   17.5601  -14.5147 C   0  0  0  0  0  0  0  0  0  0  0  0
   14.6952   16.5581  -14.7321 C   0  0  0  0  0  0  0  0  0  0  0  0
   14.9872   15.9405  -15.9873 C   0  0  0  0  0  0  0  0  0  0  0  0
   15.1256   14.6264  -17.9491 N   0  0  0  0  0  0  0  0  0  0  0  0
   16.7070   16.4221  -17.6601 N   0  0  0  0  0  0  0  0  0  0  0  0
   16.4520   17.5922  -15.5989 N   0  0  0  0  0  0  0  0  0  0  0  0
   17.2391   18.2095  -15.7377 H   0  0  0  0  0  0  0  0  0  0  0  0
   11.3951   13.8347  -18.9096 C   0  0  0  0  0  0  0  0  0  0  0  0
   11.9330   12.5894  -19.2496 C   0  0  0  0  0  0  0  0  0  0  0  0
   13.0742   12.5215  -20.0474 C   0  0  0  0  0  0  0  0  0  0  0  0
   13.6497   13.6963  -20.5350 C   0  0  0  0  0  0  0  0  0  0  0  0
   13.0715   14.9410  -20.2478 C   0  0  0  0  0  0  0  0  0  0  0  0
   11.9306   15.0111  -19.4419 C   0  0  0  0  0  0  0  0  0  0  0  0
   13.6503   16.1353  -20.7925 C   0  0  0  0  0  0  0  0  0  0  0  0
   14.1112   17.0909  -21.2618 N   0  0  0  0  0  0  0  0  0  0  0  0
  2 10  1  0  0  0
  2 22  1  0  0  0
  3 10  1  0  0  0
  3  4  1  0  0  0
  4  5  1  0  0  0
  5  6  1  0  0  0
  6  7  1  0  0  0
  6 10  1  0  0  0
  7  8  1  0  0  0
  8 11  1  0  0  0
  9 11  1  0  0  0
  9  6  1  0  0  0
 13 18  2  0  0  0
 14 19  2  0  0  0
 14 20  1  0  0  0
 16 17  1  0  0  0
 17 12  2  0  0  0
 23 24  2  0  0  0
 25 26  2  0  0  0
 26 28  1  0  0  0
 27 22  2  0  0  0
 11 12  1  0  0  0
 20 15  1  0  0  0
  2  1  2  0  0  0
 12 18  1  0  0  0
 13 19  1  0  0  0
 15 16  2  0  0  0
 17 14  1  0  0  0
 22 23  1  0  0  0
 24 25  1  0  0  0
 26 27  1  0  0  0
 28 29  3  0  0  0
 20 21  1  0  0  0
M  END
> <minimizedAffinity>
-6.14016

$$$$
CHEMBL3693610


 29 33  0  0  0  0  0  0  0  0999 V2000
   19.1022   20.6382   -6.4540 O   0  0  0  0  0  0  0  0  0  0  0  0
   19.3149   20.2291   -5.3134 C   0  0  0  0  0  0  0  0  0  0  0  0
   21.6966   20.1013   -5.7636 C   0  0  0  0  0  0  0  0  0  0  0  0
   22.9347   19.8225   -4.9365 C   0  0  0  0  0  0  0  0  0  0  0  0
   22.4738   18.7097   -4.0113 C   0  0  0  0  0  0  0  0  0  0  0  0
   21.0047   19.0694   -3.6741 C   0  0  0  0  0  0  0  0  0  0  0  0
   20.9214   19.8727   -2.3644 C   0  0  0  0  0  0  0  0  0  0  0  0
   19.8558   19.1996   -1.4961 C   0  0  0  0  0  0  0  0  0  0  0  0
   20.2034   17.7754   -3.4145 C   0  0  0  0  0  0  0  0  0  0  0  0
   20.5742   19.8431   -4.8751 N   0  0  0  0  0  0  0  0  0  0  0  0
   19.3739   18.0743   -2.2599 N   0  0  0  0  0  0  0  0  0  0  0  0
   18.3579   17.2224   -1.9031 C   0  0  0  0  0  0  0  0  0  0  0  0
   16.8081   16.5771   -0.2622 C   0  0  0  0  0  0  0  0  0  0  0  0
   16.9142   15.3265   -2.0782 C   0  0  0  0  0  0  0  0  0  0  0  0
   17.4062   14.3753   -4.0426 C   0  0  0  0  0  0  0  0  0  0  0  0
   18.1883   15.5044   -3.9171 C   0  0  0  0  0  0  0  0  0  0  0  0
   17.9013   16.1144   -2.6571 C   0  0  0  0  0  0  0  0  0  0  0  0
   17.7696   17.4178   -0.6877 N   0  0  0  0  0  0  0  0  0  0  0  0
   16.3173   15.5054   -0.8941 N   0  0  0  0  0  0  0  0  0  0  0  0
   16.6369   14.2815   -2.9147 N   0  0  0  0  0  0  0  0  0  0  0  0
   15.9669   13.5575   -2.6986 H   0  0  0  0  0  0  0  0  0  0  0  0
   18.1646   20.2210   -4.3988 C   0  0  0  0  0  0  0  0  0  0  0  0
   17.9578   21.3257   -3.5665 C   0  0  0  0  0  0  0  0  0  0  0  0
   16.8429   21.3652   -2.7308 C   0  0  0  0  0  0  0  0  0  0  0  0
   15.9183   20.3195   -2.7591 C   0  0  0  0  0  0  0  0  0  0  0  0
   16.0920   19.2435   -3.6413 C   0  0  0  0  0  0  0  0  0  0  0  0
   17.2139   19.1993   -4.4754 C   0  0  0  0  0  0  0  0  0  0  0  0
   15.1102   18.1986   -3.6888 C   0  0  0  0  0  0  0  0  0  0  0  0
   14.3286   17.3414   -3.7010 N   0  0  0  0  0  0  0  0  0  0  0  0
  2 10  1  0  0  0
  2 22  1  0  0  0
  3 10  1  0  0  0
  3  4  1  0  0  0
  4  5  1  0  0  0
  5  6  1  0  0  0
  6  7  1  0  0  0
  6 10  1  0  0  0
  7  8  1  0  0  0
  8 11  1  0  0  0
  9 11  1  0  0  0
  9  6  1  0  0  0
 13 18  2  0  0  0
 14 19  2  0  0  0
 14 20  1  0  0  0
 16 17  1  0  0  0
 17 12  2  0  0  0
 23 24  2  0  0  0
 25 26  2  0  0  0
 26 28  1  0  0  0
 27 22  2  0  0  0
 11 12  1  0  0  0
 20 15  1  0  0  0
  2  1  2  0  0  0
 12 18  1  0  0  0
 13 19  1  0  0  0
 15 16  2  0  0  0
 17 14  1  0  0  0
 22 23  1  0  0  0
 24 25  1  0  0  0
 26 27  1  0  0  0
 28 29  3  0  0  0
 20 21  1  0  0  0
M  END
> <minimizedAffinity>
-5.28413

$$$$
CHEMBL3693610


 29 33  0  0  0  0  0  0  0  0999 V2000
   17.1879   24.1269  -20.0927 O   0  0  0  0  0  0  0  0  0  0  0  0
   17.0856   22.9008  -20.0927 C   0  0  0  0  0  0  0  0  0  0  0  0
   14.8607   23.0496  -21.0514 C   0  0  0  0  0  0  0  0  0  0  0  0
   13.8546   22.0564  -21.5956 C   0  0  0  0  0  0  0  0  0  0  0  0
   13.9755   20.8942  -20.6253 C   0  0  0  0  0  0  0  0  0  0  0  0
   15.4857   20.8292  -20.2843 C   0  0  0  0  0  0  0  0  0  0  0  0
   16.2149   19.8323  -21.2020 C   0  0  0  0  0  0  0  0  0  0  0  0
   17.0412   18.9158  -20.2966 C   0  0  0  0  0  0  0  0  0  0  0  0
   15.6682   20.2798  -18.8530 C   0  0  0  0  0  0  0  0  0  0  0  0
   15.9242   22.2428  -20.4739 N   0  0  0  0  0  0  0  0  0  0  0  0
   16.7854   19.3559  -18.9465 N   0  0  0  0  0  0  0  0  0  0  0  0
   17.3718   18.8670  -17.8052 C   0  0  0  0  0  0  0  0  0  0  0  0
   17.4118   18.8515  -15.4580 C   0  0  0  0  0  0  0  0  0  0  0  0
   19.0055   17.7239  -16.4885 C   0  0  0  0  0  0  0  0  0  0  0  0
   20.4023   16.7736  -17.9553 C   0  0  0  0  0  0  0  0  0  0  0  0
   19.4125   17.4117  -18.6733 C   0  0  0  0  0  0  0  0  0  0  0  0
   18.5213   18.0423  -17.7513 C   0  0  0  0  0  0  0  0  0  0  0  0
   16.8414   19.2539  -16.6091 N   0  0  0  0  0  0  0  0  0  0  0  0
   18.4959   18.0835  -15.3048 N   0  0  0  0  0  0  0  0  0  0  0  0
   20.1397   16.9737  -16.6273 N   0  0  0  0  0  0  0  0  0  0  0  0
   20.6870   16.6415  -15.8463 H   0  0  0  0  0  0  0  0  0  0  0  0
   18.2899   22.1462  -19.7187 C   0  0  0  0  0  0  0  0  0  0  0  0
   19.1198   21.6564  -20.7322 C   0  0  0  0  0  0  0  0  0  0  0  0
   20.2963   20.9859  -20.4015 C   0  0  0  0  0  0  0  0  0  0  0  0
   20.6589   20.8427  -19.0609 C   0  0  0  0  0  0  0  0  0  0  0  0
   19.8596   21.3914  -18.0480 C   0  0  0  0  0  0  0  0  0  0  0  0
   18.6753   22.0584  -18.3780 C   0  0  0  0  0  0  0  0  0  0  0  0
   20.2687   21.2730  -16.6781 C   0  0  0  0  0  0  0  0  0  0  0  0
   20.5706   21.1677  -15.5629 N   0  0  0  0  0  0  0  0  0  0  0  0
  2 10  1  0  0  0
  2 22  1  0  0  0
  3 10  1  0  0  0
  3  4  1  0  0  0
  4  5  1  0  0  0
  5  6  1  0  0  0
  6  7  1  0  0  0
  6 10  1  0  0  0
  7  8  1  0  0  0
  8 11  1  0  0  0
  9 11  1  0  0  0
  9  6  1  0  0  0
 13 18  2  0  0  0
 14 19  2  0  0  0
 14 20  1  0  0  0
 16 17  1  0  0  0
 17 12  2  0  0  0
 23 24  2  0  0  0
 25 26  2  0  0  0
 26 28  1  0  0  0
 27 22  2  0  0  0
 11 12  1  0  0  0
 20 15  1  0  0  0
  2  1  2  0  0  0
 12 18  1  0  0  0
 13 19  1  0  0  0
 15 16  2  0  0  0
 17 14  1  0  0  0
 22 23  1  0  0  0
 24 25  1  0  0  0
 26 27  1  0  0  0
 28 29  3  0  0  0
 20 21  1  0  0  0
M  END
> <minimizedAffinity>
-5.05489

$$$$
CHEMBL3693610


 29 33  0  0  0  0  0  0  0  0999 V2000
   17.1564   17.9712  -23.0500 O   0  0  0  0  0  0  0  0  0  0  0  0
   16.8812   18.6244  -22.0444 C   0  0  0  0  0  0  0  0  0  0  0  0
   15.8280   20.3393  -23.4014 C   0  0  0  0  0  0  0  0  0  0  0  0
   15.0120   21.5842  -23.1199 C   0  0  0  0  0  0  0  0  0  0  0  0
   15.7105   22.1732  -21.9067 C   0  0  0  0  0  0  0  0  0  0  0  0
   16.1318   20.9415  -21.0659 C   0  0  0  0  0  0  0  0  0  0  0  0
   15.0706   20.6125  -20.0015 C   0  0  0  0  0  0  0  0  0  0  0  0
   15.8081   20.4623  -18.6688 C   0  0  0  0  0  0  0  0  0  0  0  0
   17.4175   21.2709  -20.2768 C   0  0  0  0  0  0  0  0  0  0  0  0
   16.2866   19.8776  -22.1005 N   0  0  0  0  0  0  0  0  0  0  0  0
   17.2010   20.7056  -18.9562 N   0  0  0  0  0  0  0  0  0  0  0  0
   18.2452   20.6069  -18.0700 C   0  0  0  0  0  0  0  0  0  0  0  0
   20.4934   21.0985  -17.6065 C   0  0  0  0  0  0  0  0  0  0  0  0
   19.4272   19.8379  -16.1411 C   0  0  0  0  0  0  0  0  0  0  0  0
   17.9630   18.5938  -14.9949 C   0  0  0  0  0  0  0  0  0  0  0  0
   17.3091   19.0973  -16.1000 C   0  0  0  0  0  0  0  0  0  0  0  0
   18.2364   19.8792  -16.8556 C   0  0  0  0  0  0  0  0  0  0  0  0
   19.4197   21.2120  -18.4106 N   0  0  0  0  0  0  0  0  0  0  0  0
   20.5857   20.4314  -16.4511 N   0  0  0  0  0  0  0  0  0  0  0  0
   19.2511   19.0540  -15.0352 N   0  0  0  0  0  0  0  0  0  0  0  0
   19.9855   18.8535  -14.3717 H   0  0  0  0  0  0  0  0  0  0  0  0
   17.1628   17.9823  -20.7528 C   0  0  0  0  0  0  0  0  0  0  0  0
   16.1354   17.2856  -20.1087 C   0  0  0  0  0  0  0  0  0  0  0  0
   16.3931   16.6218  -18.9103 C   0  0  0  0  0  0  0  0  0  0  0  0
   17.6851   16.6233  -18.3813 C   0  0  0  0  0  0  0  0  0  0  0  0
   18.7288   17.2667  -19.0616 C   0  0  0  0  0  0  0  0  0  0  0  0
   18.4702   17.9390  -20.2605 C   0  0  0  0  0  0  0  0  0  0  0  0
   20.0591   17.2219  -18.5265 C   0  0  0  0  0  0  0  0  0  0  0  0
   21.1425   17.1646  -18.1157 N   0  0  0  0  0  0  0  0  0  0  0  0
  2 10  1  0  0  0
  2 22  1  0  0  0
  3 10  1  0  0  0
  3  4  1  0  0  0
  4  5  1  0  0  0
  5  6  1  0  0  0
  6  7  1  0  0  0
  6 10  1  0  0  0
  7  8  1  0  0  0
  8 11  1  0  0  0
  9 11  1  0  0  0
  9  6  1  0  0  0
 13 18  2  0  0  0
 14 19  2  0  0  0
 14 20  1  0  0  0
 16 17  1  0  0  0
 17 12  2  0  0  0
 23 24  2  0  0  0
 25 26  2  0  0  0
 26 28  1  0  0  0
 27 22  2  0  0  0
 11 12  1  0  0  0
 20 15  1  0  0  0
  2  1  2  0  0  0
 12 18  1  0  0  0
 13 19  1  0  0  0
 15 16  2  0  0  0
 17 14  1  0  0  0
 22 23  1  0  0  0
 24 25  1  0  0  0
 26 27  1  0  0  0
 28 29  3  0  0  0
 20 21  1  0  0  0
M  END
> <minimizedAffinity>
-4.74463

$$$$
CHEMBL3693610


 29 33  0  0  0  0  0  0  0  0999 V2000
   16.7165   22.1651  -21.0758 O   0  0  0  0  0  0  0  0  0  0  0  0
   17.3883   21.1350  -21.0417 C   0  0  0  0  0  0  0  0  0  0  0  0
   15.7988   20.0066  -22.4880 C   0  0  0  0  0  0  0  0  0  0  0  0
   15.7517   18.6703  -23.2000 C   0  0  0  0  0  0  0  0  0  0  0  0
   16.3529   17.7250  -22.1744 C   0  0  0  0  0  0  0  0  0  0  0  0
   17.4742   18.5515  -21.4956 C   0  0  0  0  0  0  0  0  0  0  0  0
   18.8316   18.3002  -22.1754 C   0  0  0  0  0  0  0  0  0  0  0  0
   19.8343   17.9821  -21.0637 C   0  0  0  0  0  0  0  0  0  0  0  0
   17.6515   18.0796  -20.0362 C   0  0  0  0  0  0  0  0  0  0  0  0
   16.9838   19.9526  -21.6462 N   0  0  0  0  0  0  0  0  0  0  0  0
   19.0888   18.0352  -19.8294 N   0  0  0  0  0  0  0  0  0  0  0  0
   19.5978   17.8853  -18.5630 C   0  0  0  0  0  0  0  0  0  0  0  0
   21.4320   17.2705  -17.2332 C   0  0  0  0  0  0  0  0  0  0  0  0
   19.5580   17.7660  -16.1769 C   0  0  0  0  0  0  0  0  0  0  0  0
   17.4720   18.3144  -15.5820 C   0  0  0  0  0  0  0  0  0  0  0  0
   17.5548   18.4124  -16.9553 C   0  0  0  0  0  0  0  0  0  0  0  0
   18.8767   18.0454  -17.3551 C   0  0  0  0  0  0  0  0  0  0  0  0
   20.8984   17.4890  -18.4496 N   0  0  0  0  0  0  0  0  0  0  0  0
   20.8340   17.3864  -16.0426 N   0  0  0  0  0  0  0  0  0  0  0  0
   18.6997   17.9197  -15.1241 N   0  0  0  0  0  0  0  0  0  0  0  0
   18.9600   17.7482  -14.1635 H   0  0  0  0  0  0  0  0  0  0  0  0
   18.6911   21.2284  -20.3683 C   0  0  0  0  0  0  0  0  0  0  0  0
   19.8379   21.4258  -21.1441 C   0  0  0  0  0  0  0  0  0  0  0  0
   21.0776   21.5730  -20.5240 C   0  0  0  0  0  0  0  0  0  0  0  0
   21.1610   21.5625  -19.1305 C   0  0  0  0  0  0  0  0  0  0  0  0
   20.0022   21.4304  -18.3521 C   0  0  0  0  0  0  0  0  0  0  0  0
   18.7585   21.2757  -18.9730 C   0  0  0  0  0  0  0  0  0  0  0  0
   20.1002   21.4652  -16.9213 C   0  0  0  0  0  0  0  0  0  0  0  0
   20.1827   21.5244  -15.7656 N   0  0  0  0  0  0  0  0  0  0  0  0
  2 10  1  0  0  0
  2 22  1  0  0  0
  3 10  1  0  0  0
  3  4  1  0  0  0
  4  5  1  0  0  0
  5  6  1  0  0  0
  6  7  1  0  0  0
  6 10  1  0  0  0
  7  8  1  0  0  0
  8 11  1  0  0  0
  9 11  1  0  0  0
  9  6  1  0  0  0
 13 18  2  0  0  0
 14 19  2  0  0  0
 14 20  1  0  0  0
 16 17  1  0  0  0
 17 12  2  0  0  0
 23 24  2  0  0  0
 25 26  2  0  0  0
 26 28  1  0  0  0
 27 22  2  0  0  0
 11 12  1  0  0  0
 20 15  1  0  0  0
  2  1  2  0  0  0
 12 18  1  0  0  0
 13 19  1  0  0  0
 15 16  2  0  0  0
 17 14  1  0  0  0
 22 23  1  0  0  0
 24 25  1  0  0  0
 26 27  1  0  0  0
 28 29  3  0  0  0
 20 21  1  0  0  0
M  END
> <minimizedAffinity>
-4.68435

$$$$
CHEMBL3693610


 29 33  0  0  0  0  0  0  0  0999 V2000
   19.3988   20.7118   -6.6764 O   0  0  0  0  0  0  0  0  0  0  0  0
   19.4734   20.1429   -5.5881 C   0  0  0  0  0  0  0  0  0  0  0  0
   21.8786   19.9215   -5.8270 C   0  0  0  0  0  0  0  0  0  0  0  0
   23.0106   19.4562   -4.9342 C   0  0  0  0  0  0  0  0  0  0  0  0
   22.4014   18.2633   -4.2181 C   0  0  0  0  0  0  0  0  0  0  0  0
   20.9263   18.6698   -3.9734 C   0  0  0  0  0  0  0  0  0  0  0  0
   20.7521   19.2969   -2.5792 C   0  0  0  0  0  0  0  0  0  0  0  0
   19.5707   18.5856   -1.9153 C   0  0  0  0  0  0  0  0  0  0  0  0
   20.0370   17.4076   -3.9706 C   0  0  0  0  0  0  0  0  0  0  0  0
   20.6602   19.6216   -5.0913 N   0  0  0  0  0  0  0  0  0  0  0  0
   19.1113   17.6046   -2.8685 N   0  0  0  0  0  0  0  0  0  0  0  0
   18.0217   16.7807   -2.7289 C   0  0  0  0  0  0  0  0  0  0  0  0
   16.7383   15.0357   -3.6338 C   0  0  0  0  0  0  0  0  0  0  0  0
   15.9721   15.9847   -1.7938 C   0  0  0  0  0  0  0  0  0  0  0  0
   15.5996   17.2564    0.0088 C   0  0  0  0  0  0  0  0  0  0  0  0
   16.8006   17.6527   -0.5416 C   0  0  0  0  0  0  0  0  0  0  0  0
   17.0449   16.8633   -1.7075 C   0  0  0  0  0  0  0  0  0  0  0  0
   17.8221   15.8324   -3.6894 N   0  0  0  0  0  0  0  0  0  0  0  0
   15.7621   15.0418   -2.7197 N   0  0  0  0  0  0  0  0  0  0  0  0
   15.1085   16.2406   -0.7655 N   0  0  0  0  0  0  0  0  0  0  0  0
   14.2393   15.7443   -0.6313 H   0  0  0  0  0  0  0  0  0  0  0  0
   18.2375   20.0887   -4.7949 C   0  0  0  0  0  0  0  0  0  0  0  0
   17.2803   19.1172   -5.1045 C   0  0  0  0  0  0  0  0  0  0  0  0
   16.1254   19.0105   -4.3312 C   0  0  0  0  0  0  0  0  0  0  0  0
   15.9503   19.8480   -3.2280 C   0  0  0  0  0  0  0  0  0  0  0  0
   16.9407   20.7773   -2.8794 C   0  0  0  0  0  0  0  0  0  0  0  0
   18.0968   20.8902   -3.6584 C   0  0  0  0  0  0  0  0  0  0  0  0
   16.7647   21.6003   -1.7176 C   0  0  0  0  0  0  0  0  0  0  0  0
   16.6457   22.2501   -0.7640 N   0  0  0  0  0  0  0  0  0  0  0  0
  2 10  1  0  0  0
  2 22  1  0  0  0
  3 10  1  0  0  0
  3  4  1  0  0  0
  4  5  1  0  0  0
  5  6  1  0  0  0
  6  7  1  0  0  0
  6 10  1  0  0  0
  7  8  1  0  0  0
  8 11  1  0  0  0
  9 11  1  0  0  0
  9  6  1  0  0  0
 13 18  2  0  0  0
 14 19  2  0  0  0
 14 20  1  0  0  0
 16 17  1  0  0  0
 17 12  2  0  0  0
 23 24  2  0  0  0
 25 26  2  0  0  0
 26 28  1  0  0  0
 27 22  2  0  0  0
 11 12  1  0  0  0
 20 15  1  0  0  0
  2  1  2  0  0  0
 12 18  1  0  0  0
 13 19  1  0  0  0
 15 16  2  0  0  0
 17 14  1  0  0  0
 22 23  1  0  0  0
 24 25  1  0  0  0
 26 27  1  0  0  0
 28 29  3  0  0  0
 20 21  1  0  0  0
M  END
> <minimizedAffinity>
-4.64755

$$$$
CHEMBL3693610


 29 33  0  0  0  0  0  0  0  0999 V2000
   15.9150   14.9223  -18.3020 O   0  0  0  0  0  0  0  0  0  0  0  0
   16.4210   15.8844  -17.7259 C   0  0  0  0  0  0  0  0  0  0  0  0
   14.9413   15.5731  -15.8273 C   0  0  0  0  0  0  0  0  0  0  0  0
   14.8216   16.1811  -14.4450 C   0  0  0  0  0  0  0  0  0  0  0  0
   15.1117   17.6499  -14.7008 C   0  0  0  0  0  0  0  0  0  0  0  0
   16.2146   17.6435  -15.7892 C   0  0  0  0  0  0  0  0  0  0  0  0
   17.6144   17.7202  -15.1549 C   0  0  0  0  0  0  0  0  0  0  0  0
   18.3712   18.8359  -15.8794 C   0  0  0  0  0  0  0  0  0  0  0  0
   16.0876   18.9123  -16.6599 C   0  0  0  0  0  0  0  0  0  0  0  0
   15.9565   16.3616  -16.5079 N   0  0  0  0  0  0  0  0  0  0  0  0
   17.4525   19.3699  -16.8555 N   0  0  0  0  0  0  0  0  0  0  0  0
   17.7257   20.3431  -17.7847 C   0  0  0  0  0  0  0  0  0  0  0  0
   19.2342   21.9687  -18.5548 C   0  0  0  0  0  0  0  0  0  0  0  0
   17.2804   21.8596  -19.5768 C   0  0  0  0  0  0  0  0  0  0  0  0
   15.2010   21.3923  -20.2574 C   0  0  0  0  0  0  0  0  0  0  0  0
   15.5192   20.5081  -19.2478 C   0  0  0  0  0  0  0  0  0  0  0  0
   16.8386   20.8057  -18.7865 C   0  0  0  0  0  0  0  0  0  0  0  0
   18.9363   20.9673  -17.7058 N   0  0  0  0  0  0  0  0  0  0  0  0
   18.4654   22.4787  -19.5231 N   0  0  0  0  0  0  0  0  0  0  0  0
   16.2837   22.2079  -20.4450 N   0  0  0  0  0  0  0  0  0  0  0  0
   16.3611   22.9670  -21.1065 H   0  0  0  0  0  0  0  0  0  0  0  0
   17.5992   16.4830  -18.3688 C   0  0  0  0  0  0  0  0  0  0  0  0
   17.4117   17.3178  -19.4751 C   0  0  0  0  0  0  0  0  0  0  0  0
   18.5089   17.9411  -20.0672 C   0  0  0  0  0  0  0  0  0  0  0  0
   19.7836   17.7598  -19.5273 C   0  0  0  0  0  0  0  0  0  0  0  0
   19.9618   16.9755  -18.3788 C   0  0  0  0  0  0  0  0  0  0  0  0
   18.8628   16.3439  -17.7877 C   0  0  0  0  0  0  0  0  0  0  0  0
   21.2719   16.8347  -17.8114 C   0  0  0  0  0  0  0  0  0  0  0  0
   22.3422   16.7416  -17.3737 N   0  0  0  0  0  0  0  0  0  0  0  0
  2 10  1  0  0  0
  2 22  1  0  0  0
  3 10  1  0  0  0
  3  4  1  0  0  0
  4  5  1  0  0  0
  5  6  1  0  0  0
  6  7  1  0  0  0
  6 10  1  0  0  0
  7  8  1  0  0  0
  8 11  1  0  0  0
  9 11  1  0  0  0
  9  6  1  0  0  0
 13 18  2  0  0  0
 14 19  2  0  0  0
 14 20  1  0  0  0
 16 17  1  0  0  0
 17 12  2  0  0  0
 23 24  2  0  0  0
 25 26  2  0  0  0
 26 28  1  0  0  0
 27 22  2  0  0  0
 11 12  1  0  0  0
 20 15  1  0  0  0
  2  1  2  0  0  0
 12 18  1  0  0  0
 13 19  1  0  0  0
 15 16  2  0  0  0
 17 14  1  0  0  0
 22 23  1  0  0  0
 24 25  1  0  0  0
 26 27  1  0  0  0
 28 29  3  0  0  0
 20 21  1  0  0  0
M  END
> <minimizedAffinity>
-4.55569

$$$$
CHEMBL3693611


 29 33  0  0  0  0  0  0  0  0999 V2000
   11.4901   14.1312  -20.8429 O   0  0  0  0  0  0  0  0  0  0  0  0
   11.6298   14.0240  -19.6199 C   0  0  0  0  0  0  0  0  0  0  0  0
   13.7172   15.1909  -19.8383 C   0  0  0  0  0  0  0  0  0  0  0  0
   14.6689   15.8754  -18.8870 C   0  0  0  0  0  0  0  0  0  0  0  0
   14.8071   14.8589  -17.7700 C   0  0  0  0  0  0  0  0  0  0  0  0
   13.4115   14.1805  -17.6589 C   0  0  0  0  0  0  0  0  0  0  0  0
   13.6160   12.6852  -17.3703 C   0  0  0  0  0  0  0  0  0  0  0  0
   12.4670   12.2694  -16.4648 C   0  0  0  0  0  0  0  0  0  0  0  0
   12.6326   14.6874  -16.4245 C   0  0  0  0  0  0  0  0  0  0  0  0
   12.7930   14.4494  -18.9926 N   0  0  0  0  0  0  0  0  0  0  0  0
   11.9510   13.5026  -15.9157 N   0  0  0  0  0  0  0  0  0  0  0  0
   10.9529   13.5952  -14.9796 C   0  0  0  0  0  0  0  0  0  0  0  0
    8.7508   13.0737  -14.3715 C   0  0  0  0  0  0  0  0  0  0  0  0
    9.9800   14.1115  -12.8581 C   0  0  0  0  0  0  0  0  0  0  0  0
   11.6073   15.0889  -11.6725 C   0  0  0  0  0  0  0  0  0  0  0  0
   12.1141   14.8032  -12.9226 C   0  0  0  0  0  0  0  0  0  0  0  0
   11.0902   14.1654  -13.6899 C   0  0  0  0  0  0  0  0  0  0  0  0
    9.7449   13.0429  -15.2813 N   0  0  0  0  0  0  0  0  0  0  0  0
    8.7775   13.5965  -13.1388 N   0  0  0  0  0  0  0  0  0  0  0  0
   10.3072   14.6625  -11.6503 N   0  0  0  0  0  0  0  0  0  0  0  0
    9.6679   14.7173  -10.8707 H   0  0  0  0  0  0  0  0  0  0  0  0
   10.4673   13.4392  -18.9287 C   0  0  0  0  0  0  0  0  0  0  0  0
   10.2800   12.0533  -19.0519 C   0  0  0  0  0  0  0  0  0  0  0  0
    9.0646   11.4674  -18.6976 C   0  0  0  0  0  0  0  0  0  0  0  0
    8.0282   12.2643  -18.2138 C   0  0  0  0  0  0  0  0  0  0  0  0
    8.2061   13.6474  -18.0810 C   0  0  0  0  0  0  0  0  0  0  0  0
    9.4185   14.2394  -18.4646 C   0  0  0  0  0  0  0  0  0  0  0  0
    7.1220   14.4509  -17.5919 C   0  0  0  0  0  0  0  0  0  0  0  0
    6.2562   15.2198  -17.6655 N   0  0  0  0  0  0  0  0  0  0  0  0
  2 10  1  0  0  0
  2 22  1  0  0  0
  3 10  1  0  0  0
  3  4  1  0  0  0
  4  5  1  0  0  0
  5  6  1  0  0  0
  6  7  1  0  0  0
  6 10  1  0  0  0
  7  8  1  0  0  0
  8 11  1  0  0  0
  9 11  1  0  0  0
  9  6  1  0  0  0
 13 18  2  0  0  0
 14 19  2  0  0  0
 14 20  1  0  0  0
 16 17  1  0  0  0
 17 12  2  0  0  0
 23 24  2  0  0  0
 25 26  2  0  0  0
 25 28  1  0  0  0
 27 22  2  0  0  0
 11 12  1  0  0  0
 20 15  1  0  0  0
  2  1  2  0  0  0
 12 18  1  0  0  0
 13 19  1  0  0  0
 15 16  2  0  0  0
 17 14  1  0  0  0
 22 23  1  0  0  0
 24 25  1  0  0  0
 26 27  1  0  0  0
 28 29  3  0  0  0
 20 21  1  0  0  0
M  END
> <minimizedAffinity>
-8.11330

$$$$
CHEMBL3693611


 29 33  0  0  0  0  0  0  0  0999 V2000
   15.6577   15.6532  -19.1151 O   0  0  0  0  0  0  0  0  0  0  0  0
   14.6558   15.2374  -18.5235 C   0  0  0  0  0  0  0  0  0  0  0  0
   15.4696   16.3316  -16.5467 C   0  0  0  0  0  0  0  0  0  0  0  0
   14.8784   16.7149  -15.2116 C   0  0  0  0  0  0  0  0  0  0  0  0
   14.1613   15.4463  -14.7916 C   0  0  0  0  0  0  0  0  0  0  0  0
   13.6267   14.8219  -16.1125 C   0  0  0  0  0  0  0  0  0  0  0  0
   13.7712   13.2946  -16.0252 C   0  0  0  0  0  0  0  0  0  0  0  0
   12.5805   12.7149  -16.7730 C   0  0  0  0  0  0  0  0  0  0  0  0
   12.1040   15.0365  -16.2641 C   0  0  0  0  0  0  0  0  0  0  0  0
   14.4937   15.4423  -17.1598 N   0  0  0  0  0  0  0  0  0  0  0  0
   11.6205   13.7923  -16.8516 N   0  0  0  0  0  0  0  0  0  0  0  0
   10.3582   13.6902  -17.3782 C   0  0  0  0  0  0  0  0  0  0  0  0
    8.1884   14.5651  -17.5099 C   0  0  0  0  0  0  0  0  0  0  0  0
    8.6442   12.8393  -18.8107 C   0  0  0  0  0  0  0  0  0  0  0  0
    9.5913   11.1621  -19.9506 C   0  0  0  0  0  0  0  0  0  0  0  0
   10.5368   11.6639  -19.0816 C   0  0  0  0  0  0  0  0  0  0  0  0
    9.9518   12.7465  -18.3537 C   0  0  0  0  0  0  0  0  0  0  0  0
    9.4284   14.6038  -16.9829 N   0  0  0  0  0  0  0  0  0  0  0  0
    7.7066   13.7110  -18.4220 N   0  0  0  0  0  0  0  0  0  0  0  0
    8.4449   11.8879  -19.7722 N   0  0  0  0  0  0  0  0  0  0  0  0
    7.5747   11.7729  -20.2713 H   0  0  0  0  0  0  0  0  0  0  0  0
   13.6847   14.5485  -19.3915 C   0  0  0  0  0  0  0  0  0  0  0  0
   13.8959   13.1809  -19.6285 C   0  0  0  0  0  0  0  0  0  0  0  0
   13.2218   12.5274  -20.6604 C   0  0  0  0  0  0  0  0  0  0  0  0
   12.3283   13.2375  -21.4609 C   0  0  0  0  0  0  0  0  0  0  0  0
   12.1054   14.6009  -21.2294 C   0  0  0  0  0  0  0  0  0  0  0  0
   12.8051   15.2637  -20.2102 C   0  0  0  0  0  0  0  0  0  0  0  0
   11.1901   15.3158  -22.0728 C   0  0  0  0  0  0  0  0  0  0  0  0
   11.0286   16.1634  -22.8486 N   0  0  0  0  0  0  0  0  0  0  0  0
  2 10  1  0  0  0
  2 22  1  0  0  0
  3 10  1  0  0  0
  3  4  1  0  0  0
  4  5  1  0  0  0
  5  6  1  0  0  0
  6  7  1  0  0  0
  6 10  1  0  0  0
  7  8  1  0  0  0
  8 11  1  0  0  0
  9 11  1  0  0  0
  9  6  1  0  0  0
 13 18  2  0  0  0
 14 19  2  0  0  0
 14 20  1  0  0  0
 16 17  1  0  0  0
 17 12  2  0  0  0
 23 24  2  0  0  0
 25 26  2  0  0  0
 25 28  1  0  0  0
 27 22  2  0  0  0
 11 12  1  0  0  0
 20 15  1  0  0  0
  2  1  2  0  0  0
 12 18  1  0  0  0
 13 19  1  0  0  0
 15 16  2  0  0  0
 17 14  1  0  0  0
 22 23  1  0  0  0
 24 25  1  0  0  0
 26 27  1  0  0  0
 28 29  3  0  0  0
 20 21  1  0  0  0
M  END
> <minimizedAffinity>
-6.80115

$$$$
CHEMBL3693611


 29 33  0  0  0  0  0  0  0  0999 V2000
    9.7574   12.0974  -19.5740 O   0  0  0  0  0  0  0  0  0  0  0  0
   10.5916   12.7400  -18.9274 C   0  0  0  0  0  0  0  0  0  0  0  0
   11.1399   13.9088  -20.9523 C   0  0  0  0  0  0  0  0  0  0  0  0
   11.8993   15.1684  -21.2925 C   0  0  0  0  0  0  0  0  0  0  0  0
   13.1650   15.0233  -20.4698 C   0  0  0  0  0  0  0  0  0  0  0  0
   12.7236   14.3030  -19.1633 C   0  0  0  0  0  0  0  0  0  0  0  0
   13.8234   13.3098  -18.7568 C   0  0  0  0  0  0  0  0  0  0  0  0
   13.8412   13.2996  -17.2361 C   0  0  0  0  0  0  0  0  0  0  0  0
   12.6584   15.2836  -17.9710 C   0  0  0  0  0  0  0  0  0  0  0  0
   11.4407   13.6429  -19.5530 N   0  0  0  0  0  0  0  0  0  0  0  0
   13.1609   14.5116  -16.8403 N   0  0  0  0  0  0  0  0  0  0  0  0
   13.0151   14.9514  -15.5494 C   0  0  0  0  0  0  0  0  0  0  0  0
   11.7735   14.8913  -13.5630 C   0  0  0  0  0  0  0  0  0  0  0  0
   13.6440   16.0653  -13.5301 C   0  0  0  0  0  0  0  0  0  0  0  0
   15.6036   17.0517  -13.9732 C   0  0  0  0  0  0  0  0  0  0  0  0
   15.1819   16.4225  -15.1252 C   0  0  0  0  0  0  0  0  0  0  0  0
   13.9360   15.7749  -14.8559 C   0  0  0  0  0  0  0  0  0  0  0  0
   11.9307   14.5176  -14.8485 N   0  0  0  0  0  0  0  0  0  0  0  0
   12.5759   15.6714  -12.8274 N   0  0  0  0  0  0  0  0  0  0  0  0
   14.6558   16.8255  -13.0124 N   0  0  0  0  0  0  0  0  0  0  0  0
   14.6803   17.1437  -12.0545 H   0  0  0  0  0  0  0  0  0  0  0  0
   10.5718   12.4691  -17.4792 C   0  0  0  0  0  0  0  0  0  0  0  0
   11.3961   11.4337  -17.0106 C   0  0  0  0  0  0  0  0  0  0  0  0
   11.2190   10.9106  -15.7295 C   0  0  0  0  0  0  0  0  0  0  0  0
   10.2172   11.4225  -14.9063 C   0  0  0  0  0  0  0  0  0  0  0  0
    9.3930   12.4597  -15.3614 C   0  0  0  0  0  0  0  0  0  0  0  0
    9.5530   12.9654  -16.6600 C   0  0  0  0  0  0  0  0  0  0  0  0
    8.3601   12.9642  -14.5019 C   0  0  0  0  0  0  0  0  0  0  0  0
    7.3582   13.1849  -13.9599 N   0  0  0  0  0  0  0  0  0  0  0  0
  2 10  1  0  0  0
  2 22  1  0  0  0
  3 10  1  0  0  0
  3  4  1  0  0  0
  4  5  1  0  0  0
  5  6  1  0  0  0
  6  7  1  0  0  0
  6 10  1  0  0  0
  7  8  1  0  0  0
  8 11  1  0  0  0
  9 11  1  0  0  0
  9  6  1  0  0  0
 13 18  2  0  0  0
 14 19  2  0  0  0
 14 20  1  0  0  0
 16 17  1  0  0  0
 17 12  2  0  0  0
 23 24  2  0  0  0
 25 26  2  0  0  0
 25 28  1  0  0  0
 27 22  2  0  0  0
 11 12  1  0  0  0
 20 15  1  0  0  0
  2  1  2  0  0  0
 12 18  1  0  0  0
 13 19  1  0  0  0
 15 16  2  0  0  0
 17 14  1  0  0  0
 22 23  1  0  0  0
 24 25  1  0  0  0
 26 27  1  0  0  0
 28 29  3  0  0  0
 20 21  1  0  0  0
M  END
> <minimizedAffinity>
-6.57113

$$$$
CHEMBL3693611


 29 33  0  0  0  0  0  0  0  0999 V2000
    9.6089   13.5123  -14.2987 O   0  0  0  0  0  0  0  0  0  0  0  0
    9.8448   13.4430  -15.5096 C   0  0  0  0  0  0  0  0  0  0  0  0
    7.4785   13.5802  -15.8953 C   0  0  0  0  0  0  0  0  0  0  0  0
    6.6002   13.8550  -17.0920 C   0  0  0  0  0  0  0  0  0  0  0  0
    7.2043   12.9605  -18.1573 C   0  0  0  0  0  0  0  0  0  0  0  0
    8.7334   12.9579  -17.8706 C   0  0  0  0  0  0  0  0  0  0  0  0
    9.2776   11.5447  -18.1313 C   0  0  0  0  0  0  0  0  0  0  0  0
   10.6811   11.7292  -18.6872 C   0  0  0  0  0  0  0  0  0  0  0  0
    9.5005   13.8371  -18.8835 C   0  0  0  0  0  0  0  0  0  0  0  0
    8.8135   13.3706  -16.4365 N   0  0  0  0  0  0  0  0  0  0  0  0
   10.7323   13.1001  -19.1416 N   0  0  0  0  0  0  0  0  0  0  0  0
   11.7928   13.6794  -19.7903 C   0  0  0  0  0  0  0  0  0  0  0  0
   13.5824   15.1899  -19.7072 C   0  0  0  0  0  0  0  0  0  0  0  0
   13.3825   13.9870  -21.5487 C   0  0  0  0  0  0  0  0  0  0  0  0
   12.8029   12.5290  -23.1448 C   0  0  0  0  0  0  0  0  0  0  0  0
   11.8888   12.4121  -22.1192 C   0  0  0  0  0  0  0  0  0  0  0  0
   12.2523   13.3285  -21.0837 C   0  0  0  0  0  0  0  0  0  0  0  0
   12.5063   14.6277  -19.1216 N   0  0  0  0  0  0  0  0  0  0  0  0
   14.0860   14.9369  -20.9220 N   0  0  0  0  0  0  0  0  0  0  0  0
   13.7045   13.4924  -22.7821 N   0  0  0  0  0  0  0  0  0  0  0  0
   14.5049   13.8004  -23.3150 H   0  0  0  0  0  0  0  0  0  0  0  0
   11.2788   13.4659  -15.8475 C   0  0  0  0  0  0  0  0  0  0  0  0
   11.9333   12.2276  -15.9441 C   0  0  0  0  0  0  0  0  0  0  0  0
   13.3267   12.1607  -15.9555 C   0  0  0  0  0  0  0  0  0  0  0  0
   14.0757   13.3335  -15.8736 C   0  0  0  0  0  0  0  0  0  0  0  0
   13.4330   14.5749  -15.7830 C   0  0  0  0  0  0  0  0  0  0  0  0
   12.0324   14.6392  -15.7426 C   0  0  0  0  0  0  0  0  0  0  0  0
   14.2233   15.7693  -15.6879 C   0  0  0  0  0  0  0  0  0  0  0  0
   14.8580   16.7044  -15.4249 N   0  0  0  0  0  0  0  0  0  0  0  0
  2 10  1  0  0  0
  2 22  1  0  0  0
  3 10  1  0  0  0
  3  4  1  0  0  0
  4  5  1  0  0  0
  5  6  1  0  0  0
  6  7  1  0  0  0
  6 10  1  0  0  0
  7  8  1  0  0  0
  8 11  1  0  0  0
  9 11  1  0  0  0
  9  6  1  0  0  0
 13 18  2  0  0  0
 14 19  2  0  0  0
 14 20  1  0  0  0
 16 17  1  0  0  0
 17 12  2  0  0  0
 23 24  2  0  0  0
 25 26  2  0  0  0
 25 28  1  0  0  0
 27 22  2  0  0  0
 11 12  1  0  0  0
 20 15  1  0  0  0
  2  1  2  0  0  0
 12 18  1  0  0  0
 13 19  1  0  0  0
 15 16  2  0  0  0
 17 14  1  0  0  0
 22 23  1  0  0  0
 24 25  1  0  0  0
 26 27  1  0  0  0
 28 29  3  0  0  0
 20 21  1  0  0  0
M  END
> <minimizedAffinity>
-6.44747

$$$$
CHEMBL3693611


 29 33  0  0  0  0  0  0  0  0999 V2000
   18.3270   15.7012   -2.1525 O   0  0  0  0  0  0  0  0  0  0  0  0
   17.7724   16.7868   -2.3540 C   0  0  0  0  0  0  0  0  0  0  0  0
   15.7451   15.8152   -1.5094 C   0  0  0  0  0  0  0  0  0  0  0  0
   14.4142   16.3492   -1.0379 C   0  0  0  0  0  0  0  0  0  0  0  0
   14.0492   17.3367   -2.1296 C   0  0  0  0  0  0  0  0  0  0  0  0
   15.4004   17.9539   -2.5918 C   0  0  0  0  0  0  0  0  0  0  0  0
   15.3544   18.1466   -4.1155 C   0  0  0  0  0  0  0  0  0  0  0  0
   16.1478   19.4115   -4.4047 C   0  0  0  0  0  0  0  0  0  0  0  0
   15.5828   19.3884   -2.0476 C   0  0  0  0  0  0  0  0  0  0  0  0
   16.4077   16.9417   -2.1507 N   0  0  0  0  0  0  0  0  0  0  0  0
   16.2182   20.1123   -3.1428 N   0  0  0  0  0  0  0  0  0  0  0  0
   16.7782   21.3502   -2.9556 C   0  0  0  0  0  0  0  0  0  0  0  0
   16.9058   23.2913   -1.6490 C   0  0  0  0  0  0  0  0  0  0  0  0
   18.2973   23.1513   -3.3585 C   0  0  0  0  0  0  0  0  0  0  0  0
   19.5143   22.5261   -5.1297 C   0  0  0  0  0  0  0  0  0  0  0  0
   18.5957   21.5287   -4.8801 C   0  0  0  0  0  0  0  0  0  0  0  0
   17.8175   21.9062   -3.7417 C   0  0  0  0  0  0  0  0  0  0  0  0
   16.3497   22.0880   -1.8937 N   0  0  0  0  0  0  0  0  0  0  0  0
   17.8781   23.9049   -2.3357 N   0  0  0  0  0  0  0  0  0  0  0  0
   19.3185   23.5066   -4.1954 N   0  0  0  0  0  0  0  0  0  0  0  0
   19.8429   24.3644   -4.1025 H   0  0  0  0  0  0  0  0  0  0  0  0
   18.6836   17.8575   -2.7948 C   0  0  0  0  0  0  0  0  0  0  0  0
   19.3458   17.6708   -4.0186 C   0  0  0  0  0  0  0  0  0  0  0  0
   20.4373   18.4682   -4.3635 C   0  0  0  0  0  0  0  0  0  0  0  0
   20.8721   19.4613   -3.4872 C   0  0  0  0  0  0  0  0  0  0  0  0
   20.2150   19.6603   -2.2662 C   0  0  0  0  0  0  0  0  0  0  0  0
   19.1358   18.8392   -1.9074 C   0  0  0  0  0  0  0  0  0  0  0  0
   20.6864   20.6806   -1.3734 C   0  0  0  0  0  0  0  0  0  0  0  0
   20.0645   21.3776   -0.6851 N   0  0  0  0  0  0  0  0  0  0  0  0
  2 10  1  0  0  0
  2 22  1  0  0  0
  3 10  1  0  0  0
  3  4  1  0  0  0
  4  5  1  0  0  0
  5  6  1  0  0  0
  6  7  1  0  0  0
  6 10  1  0  0  0
  7  8  1  0  0  0
  8 11  1  0  0  0
  9 11  1  0  0  0
  9  6  1  0  0  0
 13 18  2  0  0  0
 14 19  2  0  0  0
 14 20  1  0  0  0
 16 17  1  0  0  0
 17 12  2  0  0  0
 23 24  2  0  0  0
 25 26  2  0  0  0
 25 28  1  0  0  0
 27 22  2  0  0  0
 11 12  1  0  0  0
 20 15  1  0  0  0
  2  1  2  0  0  0
 12 18  1  0  0  0
 13 19  1  0  0  0
 15 16  2  0  0  0
 17 14  1  0  0  0
 22 23  1  0  0  0
 24 25  1  0  0  0
 26 27  1  0  0  0
 28 29  3  0  0  0
 20 21  1  0  0  0
M  END
> <minimizedAffinity>
-6.41901

$$$$
CHEMBL3693611


 29 33  0  0  0  0  0  0  0  0999 V2000
   14.5819   20.3322  -20.0201 O   0  0  0  0  0  0  0  0  0  0  0  0
   15.7768   20.4653  -19.7351 C   0  0  0  0  0  0  0  0  0  0  0  0
   15.6445   22.7088  -20.5816 C   0  0  0  0  0  0  0  0  0  0  0  0
   16.5084   23.9433  -20.4898 C   0  0  0  0  0  0  0  0  0  0  0  0
   17.8919   23.4015  -20.7936 C   0  0  0  0  0  0  0  0  0  0  0  0
   17.9160   21.9726  -20.1788 C   0  0  0  0  0  0  0  0  0  0  0  0
   18.6979   21.0467  -21.1235 C   0  0  0  0  0  0  0  0  0  0  0  0
   19.4260   20.0523  -20.2323 C   0  0  0  0  0  0  0  0  0  0  0  0
   18.7349   21.9338  -18.8691 C   0  0  0  0  0  0  0  0  0  0  0  0
   16.4672   21.6230  -20.0684 N   0  0  0  0  0  0  0  0  0  0  0  0
   19.4367   20.6563  -18.9194 N   0  0  0  0  0  0  0  0  0  0  0  0
   20.0643   20.1382  -17.8154 C   0  0  0  0  0  0  0  0  0  0  0  0
   20.9064   20.5042  -15.6595 C   0  0  0  0  0  0  0  0  0  0  0  0
   20.9835   18.4311  -16.4173 C   0  0  0  0  0  0  0  0  0  0  0  0
   20.7898   16.5304  -17.5832 C   0  0  0  0  0  0  0  0  0  0  0  0
   20.3021   17.5541  -18.3676 C   0  0  0  0  0  0  0  0  0  0  0  0
   20.4061   18.7756  -17.6319 C   0  0  0  0  0  0  0  0  0  0  0  0
   20.3304   20.9827  -16.7803 N   0  0  0  0  0  0  0  0  0  0  0  0
   21.2759   19.2443  -15.3960 N   0  0  0  0  0  0  0  0  0  0  0  0
   21.2015   17.0814  -16.4001 N   0  0  0  0  0  0  0  0  0  0  0  0
   21.5941   16.5898  -15.6104 H   0  0  0  0  0  0  0  0  0  0  0  0
   16.3571   19.3181  -19.0154 C   0  0  0  0  0  0  0  0  0  0  0  0
   16.3325   18.0748  -19.6672 C   0  0  0  0  0  0  0  0  0  0  0  0
   16.5733   16.8975  -18.9586 C   0  0  0  0  0  0  0  0  0  0  0  0
   16.8440   16.9561  -17.5924 C   0  0  0  0  0  0  0  0  0  0  0  0
   16.8771   18.1916  -16.9332 C   0  0  0  0  0  0  0  0  0  0  0  0
   16.6065   19.3724  -17.6404 C   0  0  0  0  0  0  0  0  0  0  0  0
   17.1462   18.2284  -15.5238 C   0  0  0  0  0  0  0  0  0  0  0  0
   17.5465   19.1829  -14.9994 N   0  0  0  0  0  0  0  0  0  0  0  0
  2 10  1  0  0  0
  2 22  1  0  0  0
  3 10  1  0  0  0
  3  4  1  0  0  0
  4  5  1  0  0  0
  5  6  1  0  0  0
  6  7  1  0  0  0
  6 10  1  0  0  0
  7  8  1  0  0  0
  8 11  1  0  0  0
  9 11  1  0  0  0
  9  6  1  0  0  0
 13 18  2  0  0  0
 14 19  2  0  0  0
 14 20  1  0  0  0
 16 17  1  0  0  0
 17 12  2  0  0  0
 23 24  2  0  0  0
 25 26  2  0  0  0
 25 28  1  0  0  0
 27 22  2  0  0  0
 11 12  1  0  0  0
 20 15  1  0  0  0
  2  1  2  0  0  0
 12 18  1  0  0  0
 13 19  1  0  0  0
 15 16  2  0  0  0
 17 14  1  0  0  0
 22 23  1  0  0  0
 24 25  1  0  0  0
 26 27  1  0  0  0
 28 29  3  0  0  0
 20 21  1  0  0  0
M  END
> <minimizedAffinity>
-6.23961

$$$$
CHEMBL3693611


 29 33  0  0  0  0  0  0  0  0999 V2000
   10.3254   15.5913  -23.3603 O   0  0  0  0  0  0  0  0  0  0  0  0
   11.3806   15.9766  -22.8457 C   0  0  0  0  0  0  0  0  0  0  0  0
   10.8390   18.1942  -23.5913 C   0  0  0  0  0  0  0  0  0  0  0  0
   11.3364   19.5841  -23.2756 C   0  0  0  0  0  0  0  0  0  0  0  0
   12.8426   19.4172  -23.3351 C   0  0  0  0  0  0  0  0  0  0  0  0
   13.1171   17.9833  -22.7976 C   0  0  0  0  0  0  0  0  0  0  0  0
   14.2578   17.3630  -23.6192 C   0  0  0  0  0  0  0  0  0  0  0  0
   15.0458   16.4901  -22.6548 C   0  0  0  0  0  0  0  0  0  0  0  0
   13.6796   18.0164  -21.3589 C   0  0  0  0  0  0  0  0  0  0  0  0
   11.8057   17.2911  -22.9837 N   0  0  0  0  0  0  0  0  0  0  0  0
   14.6769   16.9525  -21.3363 N   0  0  0  0  0  0  0  0  0  0  0  0
   15.2130   16.4962  -20.1592 C   0  0  0  0  0  0  0  0  0  0  0  0
   15.0825   14.9794  -18.3778 C   0  0  0  0  0  0  0  0  0  0  0  0
   16.8386   16.3184  -18.4157 C   0  0  0  0  0  0  0  0  0  0  0  0
   18.4254   17.8145  -18.9186 C   0  0  0  0  0  0  0  0  0  0  0  0
   17.4437   17.9056  -19.8825 C   0  0  0  0  0  0  0  0  0  0  0  0
   16.4270   16.9459  -19.5837 C   0  0  0  0  0  0  0  0  0  0  0  0
   14.5650   15.4862  -19.5146 N   0  0  0  0  0  0  0  0  0  0  0  0
   16.2094   15.3421  -17.7517 N   0  0  0  0  0  0  0  0  0  0  0  0
   18.0410   16.8448  -18.0329 N   0  0  0  0  0  0  0  0  0  0  0  0
   18.5537   16.5320  -17.2212 H   0  0  0  0  0  0  0  0  0  0  0  0
   12.0961   14.9370  -22.0851 C   0  0  0  0  0  0  0  0  0  0  0  0
   12.9621   14.0990  -22.8055 C   0  0  0  0  0  0  0  0  0  0  0  0
   13.4375   12.9156  -22.2399 C   0  0  0  0  0  0  0  0  0  0  0  0
   13.0522   12.5639  -20.9472 C   0  0  0  0  0  0  0  0  0  0  0  0
   12.1934   13.3956  -20.2171 C   0  0  0  0  0  0  0  0  0  0  0  0
   11.6930   14.5707  -20.7972 C   0  0  0  0  0  0  0  0  0  0  0  0
   11.7999   13.0087  -18.8921 C   0  0  0  0  0  0  0  0  0  0  0  0
   11.7408   13.5503  -17.8677 N   0  0  0  0  0  0  0  0  0  0  0  0
  2 10  1  0  0  0
  2 22  1  0  0  0
  3 10  1  0  0  0
  3  4  1  0  0  0
  4  5  1  0  0  0
  5  6  1  0  0  0
  6  7  1  0  0  0
  6 10  1  0  0  0
  7  8  1  0  0  0
  8 11  1  0  0  0
  9 11  1  0  0  0
  9  6  1  0  0  0
 13 18  2  0  0  0
 14 19  2  0  0  0
 14 20  1  0  0  0
 16 17  1  0  0  0
 17 12  2  0  0  0
 23 24  2  0  0  0
 25 26  2  0  0  0
 25 28  1  0  0  0
 27 22  2  0  0  0
 11 12  1  0  0  0
 20 15  1  0  0  0
  2  1  2  0  0  0
 12 18  1  0  0  0
 13 19  1  0  0  0
 15 16  2  0  0  0
 17 14  1  0  0  0
 22 23  1  0  0  0
 24 25  1  0  0  0
 26 27  1  0  0  0
 28 29  3  0  0  0
 20 21  1  0  0  0
M  END
> <minimizedAffinity>
-6.15861

$$$$
CHEMBL3693611


 29 33  0  0  0  0  0  0  0  0999 V2000
   10.1455   13.3377  -11.5991 O   0  0  0  0  0  0  0  0  0  0  0  0
   10.8075   13.8245  -12.5219 C   0  0  0  0  0  0  0  0  0  0  0  0
   12.1697   14.9051  -10.8654 C   0  0  0  0  0  0  0  0  0  0  0  0
   13.5128   15.5943  -10.8635 C   0  0  0  0  0  0  0  0  0  0  0  0
   13.4165   16.5085  -12.0697 C   0  0  0  0  0  0  0  0  0  0  0  0
   12.5637   15.7259  -13.1093 C   0  0  0  0  0  0  0  0  0  0  0  0
   11.6421   16.7197  -13.8334 C   0  0  0  0  0  0  0  0  0  0  0  0
   11.5183   16.2153  -15.2628 C   0  0  0  0  0  0  0  0  0  0  0  0
   13.4417   15.1498  -14.2427 C   0  0  0  0  0  0  0  0  0  0  0  0
   11.8257   14.7341  -12.2695 N   0  0  0  0  0  0  0  0  0  0  0  0
   12.6330   15.3138  -15.4452 N   0  0  0  0  0  0  0  0  0  0  0  0
   12.9593   14.6871  -16.6207 C   0  0  0  0  0  0  0  0  0  0  0  0
   14.6114   13.6615  -17.9283 C   0  0  0  0  0  0  0  0  0  0  0  0
   12.5547   13.6442  -18.7332 C   0  0  0  0  0  0  0  0  0  0  0  0
   10.3520   13.8302  -19.0832 C   0  0  0  0  0  0  0  0  0  0  0  0
   10.6395   14.4517  -17.8865 C   0  0  0  0  0  0  0  0  0  0  0  0
   12.0427   14.3305  -17.6404 C   0  0  0  0  0  0  0  0  0  0  0  0
   14.2576   14.3189  -16.8060 N   0  0  0  0  0  0  0  0  0  0  0  0
   13.8273   13.2921  -18.9491 N   0  0  0  0  0  0  0  0  0  0  0  0
   11.5287   13.3452  -19.5860 N   0  0  0  0  0  0  0  0  0  0  0  0
   11.6497   12.8272  -20.4442 H   0  0  0  0  0  0  0  0  0  0  0  0
   10.4270   13.3382  -13.8597 C   0  0  0  0  0  0  0  0  0  0  0  0
    9.0978   13.5451  -14.2616 C   0  0  0  0  0  0  0  0  0  0  0  0
    8.5743   12.8625  -15.3599 C   0  0  0  0  0  0  0  0  0  0  0  0
    9.3788   11.9699  -16.0665 C   0  0  0  0  0  0  0  0  0  0  0  0
   10.7082   11.7603  -15.6779 C   0  0  0  0  0  0  0  0  0  0  0  0
   11.2251   12.4253  -14.5562 C   0  0  0  0  0  0  0  0  0  0  0  0
   11.5156   10.8280  -16.4122 C   0  0  0  0  0  0  0  0  0  0  0  0
   12.6247   10.6897  -16.1005 N   0  0  0  0  0  0  0  0  0  0  0  0
  2 10  1  0  0  0
  2 22  1  0  0  0
  3 10  1  0  0  0
  3  4  1  0  0  0
  4  5  1  0  0  0
  5  6  1  0  0  0
  6  7  1  0  0  0
  6 10  1  0  0  0
  7  8  1  0  0  0
  8 11  1  0  0  0
  9 11  1  0  0  0
  9  6  1  0  0  0
 13 18  2  0  0  0
 14 19  2  0  0  0
 14 20  1  0  0  0
 16 17  1  0  0  0
 17 12  2  0  0  0
 23 24  2  0  0  0
 25 26  2  0  0  0
 25 28  1  0  0  0
 27 22  2  0  0  0
 11 12  1  0  0  0
 20 15  1  0  0  0
  2  1  2  0  0  0
 12 18  1  0  0  0
 13 19  1  0  0  0
 15 16  2  0  0  0
 17 14  1  0  0  0
 22 23  1  0  0  0
 24 25  1  0  0  0
 26 27  1  0  0  0
 28 29  3  0  0  0
 20 21  1  0  0  0
M  END
> <minimizedAffinity>
-6.08241

$$$$
CHEMBL3693611


 29 33  0  0  0  0  0  0  0  0999 V2000
   15.2052   20.3111  -19.7832 O   0  0  0  0  0  0  0  0  0  0  0  0
   16.4083   20.0763  -19.6274 C   0  0  0  0  0  0  0  0  0  0  0  0
   16.8751   22.1236  -20.7925 C   0  0  0  0  0  0  0  0  0  0  0  0
   18.0865   23.0073  -20.9666 C   0  0  0  0  0  0  0  0  0  0  0  0
   19.1776   22.0093  -21.3035 C   0  0  0  0  0  0  0  0  0  0  0  0
   18.8336   20.7339  -20.4817 C   0  0  0  0  0  0  0  0  0  0  0  0
   19.1539   19.4990  -21.3381 C   0  0  0  0  0  0  0  0  0  0  0  0
   19.6447   18.4317  -20.3721 C   0  0  0  0  0  0  0  0  0  0  0  0
   19.7647   20.5811  -19.2580 C   0  0  0  0  0  0  0  0  0  0  0  0
   17.3762   20.8954  -20.1929 N   0  0  0  0  0  0  0  0  0  0  0  0
   20.0176   19.1473  -19.1732 N   0  0  0  0  0  0  0  0  0  0  0  0
   20.5913   18.5841  -18.0620 C   0  0  0  0  0  0  0  0  0  0  0  0
   21.7779   16.7867  -17.1387 C   0  0  0  0  0  0  0  0  0  0  0  0
   21.3665   18.4965  -15.8025 C   0  0  0  0  0  0  0  0  0  0  0  0
   20.7681   20.4486  -14.8857 C   0  0  0  0  0  0  0  0  0  0  0  0
   20.3090   20.4387  -16.1858 C   0  0  0  0  0  0  0  0  0  0  0  0
   20.6948   19.2023  -16.7915 C   0  0  0  0  0  0  0  0  0  0  0  0
   21.1648   17.3558  -18.1957 N   0  0  0  0  0  0  0  0  0  0  0  0
   21.9172   17.2813  -15.9020 N   0  0  0  0  0  0  0  0  0  0  0  0
   21.4083   19.2589  -14.6682 N   0  0  0  0  0  0  0  0  0  0  0  0
   21.8659   18.9673  -13.8168 H   0  0  0  0  0  0  0  0  0  0  0  0
   16.6895   18.8942  -18.7939 C   0  0  0  0  0  0  0  0  0  0  0  0
   16.4070   17.6367  -19.3507 C   0  0  0  0  0  0  0  0  0  0  0  0
   16.3513   16.5000  -18.5439 C   0  0  0  0  0  0  0  0  0  0  0  0
   16.5815   16.6130  -17.1737 C   0  0  0  0  0  0  0  0  0  0  0  0
   16.8703   17.8618  -16.6085 C   0  0  0  0  0  0  0  0  0  0  0  0
   16.8977   19.0086  -17.4158 C   0  0  0  0  0  0  0  0  0  0  0  0
   17.0925   17.9576  -15.1937 C   0  0  0  0  0  0  0  0  0  0  0  0
   17.4669   18.9624  -14.7503 N   0  0  0  0  0  0  0  0  0  0  0  0
  2 10  1  0  0  0
  2 22  1  0  0  0
  3 10  1  0  0  0
  3  4  1  0  0  0
  4  5  1  0  0  0
  5  6  1  0  0  0
  6  7  1  0  0  0
  6 10  1  0  0  0
  7  8  1  0  0  0
  8 11  1  0  0  0
  9 11  1  0  0  0
  9  6  1  0  0  0
 13 18  2  0  0  0
 14 19  2  0  0  0
 14 20  1  0  0  0
 16 17  1  0  0  0
 17 12  2  0  0  0
 23 24  2  0  0  0
 25 26  2  0  0  0
 25 28  1  0  0  0
 27 22  2  0  0  0
 11 12  1  0  0  0
 20 15  1  0  0  0
  2  1  2  0  0  0
 12 18  1  0  0  0
 13 19  1  0  0  0
 15 16  2  0  0  0
 17 14  1  0  0  0
 22 23  1  0  0  0
 24 25  1  0  0  0
 26 27  1  0  0  0
 28 29  3  0  0  0
 20 21  1  0  0  0
M  END
> <minimizedAffinity>
-5.88312

$$$$
CHEMBL4280010


 27 31  0  0  0  0  0  0  0  0999 V2000
   11.8583   13.4174  -16.4650 C   0  0  0  0  0  0  0  0  0  0  0  0
   10.9897   12.5768  -17.4189 C   0  0  0  0  0  0  0  0  0  0  0  0
   12.6961   13.6199  -18.7762 C   0  0  0  0  0  0  0  0  0  0  0  0
   12.9769   13.9617  -17.3348 C   0  0  0  0  0  0  0  0  0  0  0  0
   14.4100   13.8993  -16.8271 C   0  0  0  0  0  0  0  0  0  0  0  0
   13.7451   15.2293  -16.9910 C   0  0  0  0  0  0  0  0  0  0  0  0
   10.9530   12.3773  -19.9603 C   0  0  0  0  0  0  0  0  0  0  0  0
   11.4775   12.8360  -18.7704 N   0  0  0  0  0  0  0  0  0  0  0  0
   11.5182   12.5100  -21.0431 O   0  0  0  0  0  0  0  0  0  0  0  0
    9.6615   11.6737  -19.9432 C   0  0  0  0  0  0  0  0  0  0  0  0
    9.3947   10.7314  -20.9245 C   0  0  0  0  0  0  0  0  0  0  0  0
    7.2836   10.3435  -20.0855 C   0  0  0  0  0  0  0  0  0  0  0  0
    7.4484   11.2953  -19.0893 C   0  0  0  0  0  0  0  0  0  0  0  0
    8.6596   11.9792  -19.0226 C   0  0  0  0  0  0  0  0  0  0  0  0
    8.2280   10.0438  -21.0059 N   0  0  0  0  0  0  0  0  0  0  0  0
   10.3328   15.3944  -16.4798 C   0  0  0  0  0  0  0  0  0  0  0  0
   11.1248   14.4527  -15.7107 N   0  0  0  0  0  0  0  0  0  0  0  0
   11.0958   14.4703  -14.3207 C   0  0  0  0  0  0  0  0  0  0  0  0
    9.9532   13.8462  -12.3549 C   0  0  0  0  0  0  0  0  0  0  0  0
   11.8223   14.9836  -12.0905 C   0  0  0  0  0  0  0  0  0  0  0  0
   12.0537   15.0775  -13.4599 C   0  0  0  0  0  0  0  0  0  0  0  0
   13.2794   15.8079  -13.5816 C   0  0  0  0  0  0  0  0  0  0  0  0
   13.7318   16.1258  -12.3180 C   0  0  0  0  0  0  0  0  0  0  0  0
   10.0569   13.8466  -13.6948 N   0  0  0  0  0  0  0  0  0  0  0  0
   10.7968   14.3860  -11.4717 N   0  0  0  0  0  0  0  0  0  0  0  0
   12.8325   15.6179  -11.4227 N   0  0  0  0  0  0  0  0  0  0  0  0
   12.8803   15.6849  -10.4163 H   0  0  0  0  0  0  0  0  0  0  0  0
 16 17  1  0  0  0
  1 17  1  0  0  0
  1  2  1  0  0  0
  2  8  1  0  0  0
  3  8  1  0  0  0
  3  4  1  0  0  0
  4  5  1  0  0  0
  4  1  1  0  0  0
  5  6  1  0  0  0
  6  4  1  0  0  0
  7 10  1  0  0  0
 11 15  2  0  0  0
 12 13  2  0  0  0
 14 10  2  0  0  0
 19 24  2  0  0  0
 20 25  2  0  0  0
 21 22  1  0  0  0
 21 18  2  0  0  0
 23 26  1  0  0  0
 17 18  1  0  0  0
  8  7  1  0  0  0
 26 20  1  0  0  0
  7  9  2  0  0  0
 10 11  1  0  0  0
 12 15  1  0  0  0
 13 14  1  0  0  0
 18 24  1  0  0  0
 19 25  1  0  0  0
 20 21  1  0  0  0
 22 23  2  0  0  0
 26 27  1  0  0  0
M  END
> <minimizedAffinity>
-8.83799

$$$$
CHEMBL4280010


 27 31  0  0  0  0  0  0  0  0999 V2000
   11.1653   13.7369  -17.1087 C   0  0  0  0  0  0  0  0  0  0  0  0
   11.4520   13.6837  -18.6205 C   0  0  0  0  0  0  0  0  0  0  0  0
    9.7309   12.0436  -18.1854 C   0  0  0  0  0  0  0  0  0  0  0  0
   10.0078   12.7777  -16.8979 C   0  0  0  0  0  0  0  0  0  0  0  0
    8.8367   13.2068  -16.0263 C   0  0  0  0  0  0  0  0  0  0  0  0
    9.7315   12.1008  -15.5636 C   0  0  0  0  0  0  0  0  0  0  0  0
   10.6457   12.1057  -20.4534 C   0  0  0  0  0  0  0  0  0  0  0  0
   10.6508   12.5900  -19.1624 N   0  0  0  0  0  0  0  0  0  0  0  0
    9.8250   11.2893  -20.8651 O   0  0  0  0  0  0  0  0  0  0  0  0
   11.6563   12.5990  -21.4014 C   0  0  0  0  0  0  0  0  0  0  0  0
   11.2893   13.5460  -22.3451 C   0  0  0  0  0  0  0  0  0  0  0  0
   13.3993   13.5518  -23.2717 C   0  0  0  0  0  0  0  0  0  0  0  0
   13.8459   12.5787  -22.3890 C   0  0  0  0  0  0  0  0  0  0  0  0
   12.9530   12.0874  -21.4401 C   0  0  0  0  0  0  0  0  0  0  0  0
   12.1416   14.0487  -23.2731 N   0  0  0  0  0  0  0  0  0  0  0  0
   13.0225   12.2062  -16.4428 C   0  0  0  0  0  0  0  0  0  0  0  0
   12.3335   13.4682  -16.2474 N   0  0  0  0  0  0  0  0  0  0  0  0
   12.8299   14.4177  -15.3611 C   0  0  0  0  0  0  0  0  0  0  0  0
   14.4742   16.0494  -14.9219 C   0  0  0  0  0  0  0  0  0  0  0  0
   12.9687   15.7175  -13.3472 C   0  0  0  0  0  0  0  0  0  0  0  0
   12.3051   14.7347  -14.0761 C   0  0  0  0  0  0  0  0  0  0  0  0
   11.2166   14.3228  -13.2418 C   0  0  0  0  0  0  0  0  0  0  0  0
   11.2608   15.0464  -12.0683 C   0  0  0  0  0  0  0  0  0  0  0  0
   13.9275   15.1334  -15.7394 N   0  0  0  0  0  0  0  0  0  0  0  0
   14.0548   16.4120  -13.7072 N   0  0  0  0  0  0  0  0  0  0  0  0
   12.3339   15.8893  -12.1487 N   0  0  0  0  0  0  0  0  0  0  0  0
   12.6361   16.5490  -11.4466 H   0  0  0  0  0  0  0  0  0  0  0  0
 16 17  1  0  0  0
  1 17  1  0  0  0
  1  2  1  0  0  0
  2  8  1  0  0  0
  3  8  1  0  0  0
  3  4  1  0  0  0
  4  5  1  0  0  0
  4  1  1  0  0  0
  5  6  1  0  0  0
  6  4  1  0  0  0
  7 10  1  0  0  0
 11 15  2  0  0  0
 12 13  2  0  0  0
 14 10  2  0  0  0
 19 24  2  0  0  0
 20 25  2  0  0  0
 21 22  1  0  0  0
 21 18  2  0  0  0
 23 26  1  0  0  0
 17 18  1  0  0  0
  8  7  1  0  0  0
 26 20  1  0  0  0
  7  9  2  0  0  0
 10 11  1  0  0  0
 12 15  1  0  0  0
 13 14  1  0  0  0
 18 24  1  0  0  0
 19 25  1  0  0  0
 20 21  1  0  0  0
 22 23  2  0  0  0
 26 27  1  0  0  0
M  END
> <minimizedAffinity>
-8.58482

$$$$
CHEMBL4280010


 27 31  0  0  0  0  0  0  0  0999 V2000
   10.8319   13.7702  -18.5825 C   0  0  0  0  0  0  0  0  0  0  0  0
   11.7948   14.5437  -17.6632 C   0  0  0  0  0  0  0  0  0  0  0  0
   13.1563   13.4878  -19.3584 C   0  0  0  0  0  0  0  0  0  0  0  0
   11.7105   13.2182  -19.6905 C   0  0  0  0  0  0  0  0  0  0  0  0
   11.2495   13.3419  -21.1353 C   0  0  0  0  0  0  0  0  0  0  0  0
   11.3351   11.9884  -20.5039 C   0  0  0  0  0  0  0  0  0  0  0  0
   14.3403   14.6289  -17.5472 C   0  0  0  0  0  0  0  0  0  0  0  0
   13.1480   14.2380  -18.1188 N   0  0  0  0  0  0  0  0  0  0  0  0
   15.4329   14.4636  -18.0843 O   0  0  0  0  0  0  0  0  0  0  0  0
   14.3149   15.2974  -16.2372 C   0  0  0  0  0  0  0  0  0  0  0  0
   15.2031   16.3333  -15.9922 C   0  0  0  0  0  0  0  0  0  0  0  0
   14.4371   16.5813  -13.8330 C   0  0  0  0  0  0  0  0  0  0  0  0
   13.5402   15.5321  -13.9756 C   0  0  0  0  0  0  0  0  0  0  0  0
   13.4845   14.8724  -15.2007 C   0  0  0  0  0  0  0  0  0  0  0  0
   15.2708   16.9993  -14.8123 N   0  0  0  0  0  0  0  0  0  0  0  0
   10.7028   11.8230  -17.0245 C   0  0  0  0  0  0  0  0  0  0  0  0
   10.0113   12.7499  -17.9009 N   0  0  0  0  0  0  0  0  0  0  0  0
    8.6244   12.7342  -17.9979 C   0  0  0  0  0  0  0  0  0  0  0  0
    6.5873   13.7815  -17.4387 C   0  0  0  0  0  0  0  0  0  0  0  0
    6.4512   11.9320  -18.6293 C   0  0  0  0  0  0  0  0  0  0  0  0
    7.8317   11.7579  -18.6656 C   0  0  0  0  0  0  0  0  0  0  0  0
    8.0368   10.5616  -19.4254 C   0  0  0  0  0  0  0  0  0  0  0  0
    6.8082   10.0646  -19.8075 C   0  0  0  0  0  0  0  0  0  0  0  0
    7.9304   13.7476  -17.4051 N   0  0  0  0  0  0  0  0  0  0  0  0
    5.7646   12.9160  -18.0361 N   0  0  0  0  0  0  0  0  0  0  0  0
    5.8544   10.9099  -19.3134 N   0  0  0  0  0  0  0  0  0  0  0  0
    4.8545   10.8195  -19.4211 H   0  0  0  0  0  0  0  0  0  0  0  0
 16 17  1  0  0  0
  1 17  1  0  0  0
  1  2  1  0  0  0
  2  8  1  0  0  0
  3  8  1  0  0  0
  3  4  1  0  0  0
  4  5  1  0  0  0
  4  1  1  0  0  0
  5  6  1  0  0  0
  6  4  1  0  0  0
  7 10  1  0  0  0
 11 15  2  0  0  0
 12 13  2  0  0  0
 14 10  2  0  0  0
 19 24  2  0  0  0
 20 25  2  0  0  0
 21 22  1  0  0  0
 21 18  2  0  0  0
 23 26  1  0  0  0
 17 18  1  0  0  0
  8  7  1  0  0  0
 26 20  1  0  0  0
  7  9  2  0  0  0
 10 11  1  0  0  0
 12 15  1  0  0  0
 13 14  1  0  0  0
 18 24  1  0  0  0
 19 25  1  0  0  0
 20 21  1  0  0  0
 22 23  2  0  0  0
 26 27  1  0  0  0
M  END
> <minimizedAffinity>
-8.51161

$$$$
CHEMBL4280010


 27 31  0  0  0  0  0  0  0  0999 V2000
   10.7196   14.3007  -16.6022 C   0  0  0  0  0  0  0  0  0  0  0  0
   11.9368   14.8717  -17.3524 C   0  0  0  0  0  0  0  0  0  0  0  0
   10.6242   13.6636  -18.9832 C   0  0  0  0  0  0  0  0  0  0  0  0
    9.8697   13.6490  -17.6780 C   0  0  0  0  0  0  0  0  0  0  0  0
    8.3685   13.8970  -17.6904 C   0  0  0  0  0  0  0  0  0  0  0  0
    8.8851   12.5272  -17.3829 C   0  0  0  0  0  0  0  0  0  0  0  0
   12.7862   14.5296  -19.7319 C   0  0  0  0  0  0  0  0  0  0  0  0
   11.8661   14.3617  -18.7187 N   0  0  0  0  0  0  0  0  0  0  0  0
   12.5742   14.2040  -20.8974 O   0  0  0  0  0  0  0  0  0  0  0  0
   14.0836   15.1477  -19.4182 C   0  0  0  0  0  0  0  0  0  0  0  0
   14.7708   14.7344  -18.2873 C   0  0  0  0  0  0  0  0  0  0  0  0
   16.4621   16.2531  -18.6668 C   0  0  0  0  0  0  0  0  0  0  0  0
   15.8287   16.7548  -19.7949 C   0  0  0  0  0  0  0  0  0  0  0  0
   14.6108   16.1952  -20.1728 C   0  0  0  0  0  0  0  0  0  0  0  0
   15.9630   15.2552  -17.9027 N   0  0  0  0  0  0  0  0  0  0  0  0
   11.4927   12.0651  -15.8021 C   0  0  0  0  0  0  0  0  0  0  0  0
   11.0508   13.4078  -15.4744 N   0  0  0  0  0  0  0  0  0  0  0  0
   11.0503   13.8529  -14.1571 C   0  0  0  0  0  0  0  0  0  0  0  0
    9.9799   13.8237  -12.0565 C   0  0  0  0  0  0  0  0  0  0  0  0
   11.7989   15.0572  -12.2196 C   0  0  0  0  0  0  0  0  0  0  0  0
   11.9967   14.7322  -13.5585 C   0  0  0  0  0  0  0  0  0  0  0  0
   13.1840   15.4353  -13.9413 C   0  0  0  0  0  0  0  0  0  0  0  0
   13.6476   16.1450  -12.8532 C   0  0  0  0  0  0  0  0  0  0  0  0
   10.0551   13.4140  -13.3343 N   0  0  0  0  0  0  0  0  0  0  0  0
   10.8157   14.6416  -11.4119 N   0  0  0  0  0  0  0  0  0  0  0  0
   12.7921   15.9047  -11.8146 N   0  0  0  0  0  0  0  0  0  0  0  0
   12.8580   16.2811  -10.8799 H   0  0  0  0  0  0  0  0  0  0  0  0
 16 17  1  0  0  0
  1 17  1  0  0  0
  1  2  1  0  0  0
  2  8  1  0  0  0
  3  8  1  0  0  0
  3  4  1  0  0  0
  4  5  1  0  0  0
  4  1  1  0  0  0
  5  6  1  0  0  0
  6  4  1  0  0  0
  7 10  1  0  0  0
 11 15  2  0  0  0
 12 13  2  0  0  0
 14 10  2  0  0  0
 19 24  2  0  0  0
 20 25  2  0  0  0
 21 22  1  0  0  0
 21 18  2  0  0  0
 23 26  1  0  0  0
 17 18  1  0  0  0
  8  7  1  0  0  0
 26 20  1  0  0  0
  7  9  2  0  0  0
 10 11  1  0  0  0
 12 15  1  0  0  0
 13 14  1  0  0  0
 18 24  1  0  0  0
 19 25  1  0  0  0
 20 21  1  0  0  0
 22 23  2  0  0  0
 26 27  1  0  0  0
M  END
> <minimizedAffinity>
-8.45974

$$$$
CHEMBL4280010


 27 31  0  0  0  0  0  0  0  0999 V2000
   10.9911   13.8802  -16.7630 C   0  0  0  0  0  0  0  0  0  0  0  0
   11.3111   13.9636  -18.2668 C   0  0  0  0  0  0  0  0  0  0  0  0
    9.6972   12.1841  -18.0013 C   0  0  0  0  0  0  0  0  0  0  0  0
    9.8976   12.8329  -16.6551 C   0  0  0  0  0  0  0  0  0  0  0  0
    8.6827   13.1145  -15.7832 C   0  0  0  0  0  0  0  0  0  0  0  0
    9.6412   12.0377  -15.3835 C   0  0  0  0  0  0  0  0  0  0  0  0
   10.6510   12.4824  -20.2342 C   0  0  0  0  0  0  0  0  0  0  0  0
   10.5972   12.8644  -18.9103 N   0  0  0  0  0  0  0  0  0  0  0  0
    9.8962   11.6477  -20.7273 O   0  0  0  0  0  0  0  0  0  0  0  0
   11.6446   13.1136  -21.1161 C   0  0  0  0  0  0  0  0  0  0  0  0
   12.8844   12.5133  -21.2725 C   0  0  0  0  0  0  0  0  0  0  0  0
   13.6137   14.2048  -22.6574 C   0  0  0  0  0  0  0  0  0  0  0  0
   12.4163   14.8946  -22.5313 C   0  0  0  0  0  0  0  0  0  0  0  0
   11.4150   14.3406  -21.7379 C   0  0  0  0  0  0  0  0  0  0  0  0
   13.8729   13.0261  -22.0473 N   0  0  0  0  0  0  0  0  0  0  0  0
   13.0863   12.5945  -16.3240 C   0  0  0  0  0  0  0  0  0  0  0  0
   12.1574   13.6236  -15.8954 N   0  0  0  0  0  0  0  0  0  0  0  0
   12.4262   14.3993  -14.7732 C   0  0  0  0  0  0  0  0  0  0  0  0
   11.8127   14.9774  -12.5712 C   0  0  0  0  0  0  0  0  0  0  0  0
   13.5514   16.0325  -13.4200 C   0  0  0  0  0  0  0  0  0  0  0  0
   13.4705   15.3571  -14.6344 C   0  0  0  0  0  0  0  0  0  0  0  0
   14.5490   15.8747  -15.4215 C   0  0  0  0  0  0  0  0  0  0  0  0
   15.2229   16.8219  -14.6792 C   0  0  0  0  0  0  0  0  0  0  0  0
   11.6250   14.2425  -13.6807 N   0  0  0  0  0  0  0  0  0  0  0  0
   12.7587   15.8936  -12.3505 N   0  0  0  0  0  0  0  0  0  0  0  0
   14.6018   16.9064  -13.4646 N   0  0  0  0  0  0  0  0  0  0  0  0
   14.8569   17.5118  -12.6978 H   0  0  0  0  0  0  0  0  0  0  0  0
 16 17  1  0  0  0
  1 17  1  0  0  0
  1  2  1  0  0  0
  2  8  1  0  0  0
  3  8  1  0  0  0
  3  4  1  0  0  0
  4  5  1  0  0  0
  4  1  1  0  0  0
  5  6  1  0  0  0
  6  4  1  0  0  0
  7 10  1  0  0  0
 11 15  2  0  0  0
 12 13  2  0  0  0
 14 10  2  0  0  0
 19 24  2  0  0  0
 20 25  2  0  0  0
 21 22  1  0  0  0
 21 18  2  0  0  0
 23 26  1  0  0  0
 17 18  1  0  0  0
  8  7  1  0  0  0
 26 20  1  0  0  0
  7  9  2  0  0  0
 10 11  1  0  0  0
 12 15  1  0  0  0
 13 14  1  0  0  0
 18 24  1  0  0  0
 19 25  1  0  0  0
 20 21  1  0  0  0
 22 23  2  0  0  0
 26 27  1  0  0  0
M  END
> <minimizedAffinity>
-8.42463

$$$$
CHEMBL4280010


 27 31  0  0  0  0  0  0  0  0999 V2000
   11.2672   13.8948  -17.0182 C   0  0  0  0  0  0  0  0  0  0  0  0
   11.5910   14.5254  -18.3849 C   0  0  0  0  0  0  0  0  0  0  0  0
   10.6349   12.3518  -18.8358 C   0  0  0  0  0  0  0  0  0  0  0  0
   10.5704   12.5872  -17.3479 C   0  0  0  0  0  0  0  0  0  0  0  0
    9.3025   12.2107  -16.5954 C   0  0  0  0  0  0  0  0  0  0  0  0
   10.5455   11.4033  -16.3925 C   0  0  0  0  0  0  0  0  0  0  0  0
   11.5114   13.5896  -20.7552 C   0  0  0  0  0  0  0  0  0  0  0  0
   11.2939   13.5144  -19.3957 N   0  0  0  0  0  0  0  0  0  0  0  0
   11.0849   12.7594  -21.5542 O   0  0  0  0  0  0  0  0  0  0  0  0
   12.2738   14.7276  -21.2910 C   0  0  0  0  0  0  0  0  0  0  0  0
   11.6476   15.6095  -22.1583 C   0  0  0  0  0  0  0  0  0  0  0  0
   13.5784   16.8393  -22.4235 C   0  0  0  0  0  0  0  0  0  0  0  0
   14.2957   15.9886  -21.5945 C   0  0  0  0  0  0  0  0  0  0  0  0
   13.6307   14.9065  -21.0235 C   0  0  0  0  0  0  0  0  0  0  0  0
   12.2690   16.6768  -22.7197 N   0  0  0  0  0  0  0  0  0  0  0  0
   13.5205   12.9146  -16.5738 C   0  0  0  0  0  0  0  0  0  0  0  0
   12.4251   13.7481  -16.1145 N   0  0  0  0  0  0  0  0  0  0  0  0
   12.5247   14.4575  -14.9229 C   0  0  0  0  0  0  0  0  0  0  0  0
   13.7291   16.0369  -13.6523 C   0  0  0  0  0  0  0  0  0  0  0  0
   11.9398   15.1665  -12.7048 C   0  0  0  0  0  0  0  0  0  0  0  0
   11.6454   14.3685  -13.8066 C   0  0  0  0  0  0  0  0  0  0  0  0
   10.4564   13.6572  -13.4447 C   0  0  0  0  0  0  0  0  0  0  0  0
   10.0858   14.0349  -12.1709 C   0  0  0  0  0  0  0  0  0  0  0  0
   13.5585   15.3366  -14.7866 N   0  0  0  0  0  0  0  0  0  0  0  0
   12.9612   16.0193  -12.5599 N   0  0  0  0  0  0  0  0  0  0  0  0
   11.0002   14.9527  -11.7351 N   0  0  0  0  0  0  0  0  0  0  0  0
   11.0066   15.4188  -10.8394 H   0  0  0  0  0  0  0  0  0  0  0  0
 16 17  1  0  0  0
  1 17  1  0  0  0
  1  2  1  0  0  0
  2  8  1  0  0  0
  3  8  1  0  0  0
  3  4  1  0  0  0
  4  5  1  0  0  0
  4  1  1  0  0  0
  5  6  1  0  0  0
  6  4  1  0  0  0
  7 10  1  0  0  0
 11 15  2  0  0  0
 12 13  2  0  0  0
 14 10  2  0  0  0
 19 24  2  0  0  0
 20 25  2  0  0  0
 21 22  1  0  0  0
 21 18  2  0  0  0
 23 26  1  0  0  0
 17 18  1  0  0  0
  8  7  1  0  0  0
 26 20  1  0  0  0
  7  9  2  0  0  0
 10 11  1  0  0  0
 12 15  1  0  0  0
 13 14  1  0  0  0
 18 24  1  0  0  0
 19 25  1  0  0  0
 20 21  1  0  0  0
 22 23  2  0  0  0
 26 27  1  0  0  0
M  END
> <minimizedAffinity>
-8.30852

$$$$
CHEMBL4280010


 27 31  0  0  0  0  0  0  0  0999 V2000
   11.0308   13.9763  -16.9923 C   0  0  0  0  0  0  0  0  0  0  0  0
   11.4849   14.6497  -18.3003 C   0  0  0  0  0  0  0  0  0  0  0  0
   10.5826   12.4921  -18.9107 C   0  0  0  0  0  0  0  0  0  0  0  0
   10.3726   12.6803  -17.4295 C   0  0  0  0  0  0  0  0  0  0  0  0
    9.0383   12.2811  -16.8166 C   0  0  0  0  0  0  0  0  0  0  0  0
   10.2575   11.4668  -16.5189 C   0  0  0  0  0  0  0  0  0  0  0  0
   11.6391   13.7893  -20.6954 C   0  0  0  0  0  0  0  0  0  0  0  0
   11.2902   13.6714  -19.3666 N   0  0  0  0  0  0  0  0  0  0  0  0
   11.2946   12.9852  -21.5580 O   0  0  0  0  0  0  0  0  0  0  0  0
   12.4475   14.9432  -21.1181 C   0  0  0  0  0  0  0  0  0  0  0  0
   11.9465   15.7975  -22.0883 C   0  0  0  0  0  0  0  0  0  0  0  0
   13.8612   17.0797  -22.0566 C   0  0  0  0  0  0  0  0  0  0  0  0
   14.4573   16.2588  -21.1099 C   0  0  0  0  0  0  0  0  0  0  0  0
   13.7379   15.1640  -20.6376 C   0  0  0  0  0  0  0  0  0  0  0  0
   12.6218   16.8763  -22.5579 N   0  0  0  0  0  0  0  0  0  0  0  0
   13.3572   13.2515  -16.4459 C   0  0  0  0  0  0  0  0  0  0  0  0
   12.0954   13.8003  -15.9850 N   0  0  0  0  0  0  0  0  0  0  0  0
   11.9489   14.2378  -14.6734 C   0  0  0  0  0  0  0  0  0  0  0  0
   10.6524   14.1970  -12.7045 C   0  0  0  0  0  0  0  0  0  0  0  0
   12.4779   15.4307  -12.6580 C   0  0  0  0  0  0  0  0  0  0  0  0
   12.8229   15.1133  -13.9686 C   0  0  0  0  0  0  0  0  0  0  0  0
   14.0452   15.8180  -14.2134 C   0  0  0  0  0  0  0  0  0  0  0  0
   14.3852   16.5213  -13.0767 C   0  0  0  0  0  0  0  0  0  0  0  0
   10.8688   13.7946  -13.9684 N   0  0  0  0  0  0  0  0  0  0  0  0
   11.4115   15.0108  -11.9666 N   0  0  0  0  0  0  0  0  0  0  0  0
   13.4200   16.2755  -12.1406 N   0  0  0  0  0  0  0  0  0  0  0  0
   13.3818   16.6464  -11.2022 H   0  0  0  0  0  0  0  0  0  0  0  0
 16 17  1  0  0  0
  1 17  1  0  0  0
  1  2  1  0  0  0
  2  8  1  0  0  0
  3  8  1  0  0  0
  3  4  1  0  0  0
  4  5  1  0  0  0
  4  1  1  0  0  0
  5  6  1  0  0  0
  6  4  1  0  0  0
  7 10  1  0  0  0
 11 15  2  0  0  0
 12 13  2  0  0  0
 14 10  2  0  0  0
 19 24  2  0  0  0
 20 25  2  0  0  0
 21 22  1  0  0  0
 21 18  2  0  0  0
 23 26  1  0  0  0
 17 18  1  0  0  0
  8  7  1  0  0  0
 26 20  1  0  0  0
  7  9  2  0  0  0
 10 11  1  0  0  0
 12 15  1  0  0  0
 13 14  1  0  0  0
 18 24  1  0  0  0
 19 25  1  0  0  0
 20 21  1  0  0  0
 22 23  2  0  0  0
 26 27  1  0  0  0
M  END
> <minimizedAffinity>
-8.16979

$$$$
CHEMBL4280010


 27 31  0  0  0  0  0  0  0  0999 V2000
   12.5452   14.1108  -16.1735 C   0  0  0  0  0  0  0  0  0  0  0  0
   11.4918   13.3585  -17.0070 C   0  0  0  0  0  0  0  0  0  0  0  0
   13.0385   14.3483  -18.5786 C   0  0  0  0  0  0  0  0  0  0  0  0
   13.5534   14.6199  -17.1877 C   0  0  0  0  0  0  0  0  0  0  0  0
   15.0394   14.4545  -16.9053 C   0  0  0  0  0  0  0  0  0  0  0  0
   14.4436   15.8265  -16.9300 C   0  0  0  0  0  0  0  0  0  0  0  0
   11.0620   13.2549  -19.5180 C   0  0  0  0  0  0  0  0  0  0  0  0
   11.7871   13.6379  -18.4094 N   0  0  0  0  0  0  0  0  0  0  0  0
   11.4659   13.3937  -20.6700 O   0  0  0  0  0  0  0  0  0  0  0  0
    9.7454   12.6284  -19.3243 C   0  0  0  0  0  0  0  0  0  0  0  0
    8.8913   13.1401  -18.3595 C   0  0  0  0  0  0  0  0  0  0  0  0
    7.3052   11.5270  -18.7989 C   0  0  0  0  0  0  0  0  0  0  0  0
    8.1074   10.9259  -19.7584 C   0  0  0  0  0  0  0  0  0  0  0  0
    9.3560   11.4843  -20.0199 C   0  0  0  0  0  0  0  0  0  0  0  0
    7.6663   12.6220  -18.0923 N   0  0  0  0  0  0  0  0  0  0  0  0
   10.9245   15.9768  -15.8167 C   0  0  0  0  0  0  0  0  0  0  0  0
   12.0006   15.1592  -15.2884 N   0  0  0  0  0  0  0  0  0  0  0  0
   12.4138   15.2971  -13.9680 C   0  0  0  0  0  0  0  0  0  0  0  0
   14.0583   16.0977  -12.4800 C   0  0  0  0  0  0  0  0  0  0  0  0
   12.3327   15.0639  -11.5797 C   0  0  0  0  0  0  0  0  0  0  0  0
   11.7305   14.8247  -12.8117 C   0  0  0  0  0  0  0  0  0  0  0  0
   10.5171   14.1290  -12.5047 C   0  0  0  0  0  0  0  0  0  0  0  0
   10.4319   13.9714  -11.1370 C   0  0  0  0  0  0  0  0  0  0  0  0
   13.5872   15.9502  -13.7300 N   0  0  0  0  0  0  0  0  0  0  0  0
   13.4911   15.6907  -11.3417 N   0  0  0  0  0  0  0  0  0  0  0  0
   11.5456   14.5447  -10.5899 N   0  0  0  0  0  0  0  0  0  0  0  0
   11.7784   14.5932   -9.6086 H   0  0  0  0  0  0  0  0  0  0  0  0
 16 17  1  0  0  0
  1 17  1  0  0  0
  1  2  1  0  0  0
  2  8  1  0  0  0
  3  8  1  0  0  0
  3  4  1  0  0  0
  4  5  1  0  0  0
  4  1  1  0  0  0
  5  6  1  0  0  0
  6  4  1  0  0  0
  7 10  1  0  0  0
 11 15  2  0  0  0
 12 13  2  0  0  0
 14 10  2  0  0  0
 19 24  2  0  0  0
 20 25  2  0  0  0
 21 22  1  0  0  0
 21 18  2  0  0  0
 23 26  1  0  0  0
 17 18  1  0  0  0
  8  7  1  0  0  0
 26 20  1  0  0  0
  7  9  2  0  0  0
 10 11  1  0  0  0
 12 15  1  0  0  0
 13 14  1  0  0  0
 18 24  1  0  0  0
 19 25  1  0  0  0
 20 21  1  0  0  0
 22 23  2  0  0  0
 26 27  1  0  0  0
M  END
> <minimizedAffinity>
-8.09656

$$$$
CHEMBL4280010


 27 31  0  0  0  0  0  0  0  0999 V2000
   12.1185   13.7715  -15.8615 C   0  0  0  0  0  0  0  0  0  0  0  0
   13.3466   14.6538  -15.5718 C   0  0  0  0  0  0  0  0  0  0  0  0
   12.0292   14.6163  -13.5458 C   0  0  0  0  0  0  0  0  0  0  0  0
   11.3809   13.6840  -14.5377 C   0  0  0  0  0  0  0  0  0  0  0  0
   10.8740   12.3320  -14.0577 C   0  0  0  0  0  0  0  0  0  0  0  0
    9.8908   13.3916  -14.4428 C   0  0  0  0  0  0  0  0  0  0  0  0
   13.9618   16.1159  -13.5758 C   0  0  0  0  0  0  0  0  0  0  0  0
   13.1646   15.2008  -14.2303 N   0  0  0  0  0  0  0  0  0  0  0  0
   13.8269   16.4016  -12.3885 O   0  0  0  0  0  0  0  0  0  0  0  0
   15.0454   16.7753  -14.3205 C   0  0  0  0  0  0  0  0  0  0  0  0
   15.0311   16.7364  -15.7062 C   0  0  0  0  0  0  0  0  0  0  0  0
   17.0239   17.8867  -15.8351 C   0  0  0  0  0  0  0  0  0  0  0  0
   17.1400   17.9435  -14.4535 C   0  0  0  0  0  0  0  0  0  0  0  0
   16.1336   17.3688  -13.6816 C   0  0  0  0  0  0  0  0  0  0  0  0
   15.9928   17.2970  -16.4816 N   0  0  0  0  0  0  0  0  0  0  0  0
   10.7356   15.5700  -16.9049 C   0  0  0  0  0  0  0  0  0  0  0  0
   11.2806   14.2277  -16.9879 N   0  0  0  0  0  0  0  0  0  0  0  0
   11.1030   13.4594  -18.1330 C   0  0  0  0  0  0  0  0  0  0  0  0
   12.0150   12.7001  -20.1704 C   0  0  0  0  0  0  0  0  0  0  0  0
    9.9783   12.0128  -19.6845 C   0  0  0  0  0  0  0  0  0  0  0  0
    9.9456   12.7050  -18.4773 C   0  0  0  0  0  0  0  0  0  0  0  0
    8.6606   12.4149  -17.9159 C   0  0  0  0  0  0  0  0  0  0  0  0
    7.9778   11.5849  -18.7803 C   0  0  0  0  0  0  0  0  0  0  0  0
   12.1281   13.4035  -19.0309 N   0  0  0  0  0  0  0  0  0  0  0  0
   10.9754   11.9669  -20.5762 N   0  0  0  0  0  0  0  0  0  0  0  0
    8.7936   11.3514  -19.8519 N   0  0  0  0  0  0  0  0  0  0  0  0
    8.5814   10.7820  -20.6583 H   0  0  0  0  0  0  0  0  0  0  0  0
 16 17  1  0  0  0
  1 17  1  0  0  0
  1  2  1  0  0  0
  2  8  1  0  0  0
  3  8  1  0  0  0
  3  4  1  0  0  0
  4  5  1  0  0  0
  4  1  1  0  0  0
  5  6  1  0  0  0
  6  4  1  0  0  0
  7 10  1  0  0  0
 11 15  2  0  0  0
 12 13  2  0  0  0
 14 10  2  0  0  0
 19 24  2  0  0  0
 20 25  2  0  0  0
 21 22  1  0  0  0
 21 18  2  0  0  0
 23 26  1  0  0  0
 17 18  1  0  0  0
  8  7  1  0  0  0
 26 20  1  0  0  0
  7  9  2  0  0  0
 10 11  1  0  0  0
 12 15  1  0  0  0
 13 14  1  0  0  0
 18 24  1  0  0  0
 19 25  1  0  0  0
 20 21  1  0  0  0
 22 23  2  0  0  0
 26 27  1  0  0  0
M  END
> <minimizedAffinity>
-8.01873

$$$$
CHEMBL3718794


 27 30  0  0  0  0  0  0  0  0999 V2000
    9.5228   13.4965  -14.4695 N   0  0  0  0  0  0  0  0  0  0  0  0
   10.1104   14.0789  -12.2010 N   0  0  0  0  0  0  0  0  0  0  0  0
   12.1286   15.3459  -12.0412 N   0  0  0  0  0  0  0  0  0  0  0  0
    9.3484   13.4921  -13.1350 C   0  0  0  0  0  0  0  0  0  0  0  0
   11.1720   14.6809  -12.7536 C   0  0  0  0  0  0  0  0  0  0  0  0
   11.4930   14.7525  -14.1008 C   0  0  0  0  0  0  0  0  0  0  0  0
   10.5733   14.1732  -15.0085 C   0  0  0  0  0  0  0  0  0  0  0  0
   12.7673   15.4129  -14.1717 C   0  0  0  0  0  0  0  0  0  0  0  0
   13.1115   15.8162  -12.8796 C   0  0  0  0  0  0  0  0  0  0  0  0
   14.2724   16.5432  -12.5952 C   0  0  0  0  0  0  0  0  0  0  0  0
   15.1084   16.8743  -13.6689 C   0  0  0  0  0  0  0  0  0  0  0  0
   14.8201   16.4637  -14.9750 C   0  0  0  0  0  0  0  0  0  0  0  0
   13.6708   15.7002  -15.2195 C   0  0  0  0  0  0  0  0  0  0  0  0
   12.1079   15.4495  -11.0382 H   0  0  0  0  0  0  0  0  0  0  0  0
   10.6762   14.2471  -16.3857 N   0  0  0  0  0  0  0  0  0  0  0  0
    9.7212   15.0220  -17.1662 C   0  0  0  0  0  0  0  0  0  0  0  0
    8.8125   14.1226  -18.0109 C   0  0  0  0  0  0  0  0  0  0  0  0
    9.6260   13.0759  -18.7860 C   0  0  0  0  0  0  0  0  0  0  0  0
   10.6903   12.3282  -17.9664 C   0  0  0  0  0  0  0  0  0  0  0  0
   11.5128   13.2850  -17.0921 C   0  0  0  0  0  0  0  0  0  0  0  0
   10.1165   11.1543  -17.1745 C   0  0  0  0  0  0  0  0  0  0  0  0
    7.6756   13.5278  -17.1799 C   0  0  0  0  0  0  0  0  0  0  0  0
   15.5984   16.3084  -17.3041 N   0  0  0  0  0  0  0  0  0  0  0  0
   15.7533   16.8694  -16.0659 C   0  0  0  0  0  0  0  0  0  0  0  0
   16.6305   17.7054  -15.8805 O   0  0  0  0  0  0  0  0  0  0  0  0
   16.2391   16.6149  -18.0249 H   0  0  0  0  0  0  0  0  0  0  0  0
   14.8899   15.6406  -17.5602 H   0  0  0  0  0  0  0  0  0  0  0  0
  3  5  1  0  0  0
  4  2  2  0  0  0
  5  6  2  0  0  0
  6  8  1  0  0  0
  7 15  1  0  0  0
  7  1  2  0  0  0
 16 15  1  0  0  0
 16 17  1  0  0  0
 17 18  1  0  0  0
 17 22  1  0  0  0
 18 19  1  0  0  0
 19 20  1  0  0  0
 19 21  1  0  0  0
 20 15  1  0  0  0
  9  3  1  0  0  0
  9 10  2  0  0  0
 11 12  2  0  0  0
 12 24  1  0  0  0
 13  8  2  0  0  0
 24 23  1  0  0  0
  4  1  1  0  0  0
  5  2  1  0  0  0
  6  7  1  0  0  0
  8  9  1  0  0  0
 10 11  1  0  0  0
 12 13  1  0  0  0
 24 25  2  0  0  0
  3 14  1  0  0  0
 23 26  1  0  0  0
 23 27  1  0  0  0
M  END
> <minimizedAffinity>
-9.50741

$$$$
CHEMBL3718794


 27 30  0  0  0  0  0  0  0  0999 V2000
   11.3120   14.1985  -13.2891 N   0  0  0  0  0  0  0  0  0  0  0  0
   12.5632   15.4528  -11.6482 N   0  0  0  0  0  0  0  0  0  0  0  0
   14.4151   16.6419  -12.5759 N   0  0  0  0  0  0  0  0  0  0  0  0
   11.5860   14.6236  -12.0419 C   0  0  0  0  0  0  0  0  0  0  0  0
   13.3336   15.8150  -12.6827 C   0  0  0  0  0  0  0  0  0  0  0  0
   13.1882   15.4451  -14.0113 C   0  0  0  0  0  0  0  0  0  0  0  0
   12.0706   14.6362  -14.3308 C   0  0  0  0  0  0  0  0  0  0  0  0
   14.3122   16.0091  -14.7067 C   0  0  0  0  0  0  0  0  0  0  0  0
   15.0282   16.7909  -13.7975 C   0  0  0  0  0  0  0  0  0  0  0  0
   16.1566   17.5343  -14.1593 C   0  0  0  0  0  0  0  0  0  0  0  0
   16.5651   17.4813  -15.4979 C   0  0  0  0  0  0  0  0  0  0  0  0
   15.8978   16.6863  -16.4360 C   0  0  0  0  0  0  0  0  0  0  0  0
   14.7963   15.9206  -16.0314 C   0  0  0  0  0  0  0  0  0  0  0  0
   14.7164   17.0593  -11.7086 H   0  0  0  0  0  0  0  0  0  0  0  0
   11.7099   14.2657  -15.6135 N   0  0  0  0  0  0  0  0  0  0  0  0
   10.4206   14.6542  -16.1692 C   0  0  0  0  0  0  0  0  0  0  0  0
    9.4882   13.4504  -16.3414 C   0  0  0  0  0  0  0  0  0  0  0  0
   10.2023   12.2859  -17.0430 C   0  0  0  0  0  0  0  0  0  0  0  0
   11.5997   11.9457  -16.5000 C   0  0  0  0  0  0  0  0  0  0  0  0
   12.4504   13.2053  -16.2856 C   0  0  0  0  0  0  0  0  0  0  0  0
   11.5566   11.0477  -15.2647 C   0  0  0  0  0  0  0  0  0  0  0  0
    8.8206   13.0594  -15.0230 C   0  0  0  0  0  0  0  0  0  0  0  0
   16.2798   17.8516  -18.5692 N   0  0  0  0  0  0  0  0  0  0  0  0
   16.3863   16.6954  -17.8456 C   0  0  0  0  0  0  0  0  0  0  0  0
   16.8982   15.7036  -18.3526 O   0  0  0  0  0  0  0  0  0  0  0  0
   16.6325   17.8280  -19.5174 H   0  0  0  0  0  0  0  0  0  0  0  0
   15.9055   18.7225  -18.2302 H   0  0  0  0  0  0  0  0  0  0  0  0
  3  5  1  0  0  0
  4  2  2  0  0  0
  5  6  2  0  0  0
  6  8  1  0  0  0
  7 15  1  0  0  0
  7  1  2  0  0  0
 16 15  1  0  0  0
 16 17  1  0  0  0
 17 18  1  0  0  0
 17 22  1  0  0  0
 18 19  1  0  0  0
 19 20  1  0  0  0
 19 21  1  0  0  0
 20 15  1  0  0  0
  9  3  1  0  0  0
  9 10  2  0  0  0
 11 12  2  0  0  0
 12 24  1  0  0  0
 13  8  2  0  0  0
 24 23  1  0  0  0
  4  1  1  0  0  0
  5  2  1  0  0  0
  6  7  1  0  0  0
  8  9  1  0  0  0
 10 11  1  0  0  0
 12 13  1  0  0  0
 24 25  2  0  0  0
  3 14  1  0  0  0
 23 26  1  0  0  0
 23 27  1  0  0  0
M  END
> <minimizedAffinity>
-9.47254

$$$$
CHEMBL3718794


 27 30  0  0  0  0  0  0  0  0999 V2000
   14.6912   14.8482  -18.1469 N   0  0  0  0  0  0  0  0  0  0  0  0
   15.8679   16.4631  -16.7910 N   0  0  0  0  0  0  0  0  0  0  0  0
   15.0018   16.6475  -14.5729 N   0  0  0  0  0  0  0  0  0  0  0  0
   15.6241   15.7928  -17.9262 C   0  0  0  0  0  0  0  0  0  0  0  0
   15.0017   16.1145  -15.8302 C   0  0  0  0  0  0  0  0  0  0  0  0
   13.9821   15.1784  -15.9146 C   0  0  0  0  0  0  0  0  0  0  0  0
   13.8683   14.4654  -17.1328 C   0  0  0  0  0  0  0  0  0  0  0  0
   13.2800   15.2408  -14.6622 C   0  0  0  0  0  0  0  0  0  0  0  0
   13.9694   16.1254  -13.8299 C   0  0  0  0  0  0  0  0  0  0  0  0
   13.5876   16.3776  -12.5079 C   0  0  0  0  0  0  0  0  0  0  0  0
   12.4653   15.6987  -12.0173 C   0  0  0  0  0  0  0  0  0  0  0  0
   11.7252   14.8283  -12.8249 C   0  0  0  0  0  0  0  0  0  0  0  0
   12.1097   14.6302  -14.1577 C   0  0  0  0  0  0  0  0  0  0  0  0
   15.6640   17.3406  -14.2593 H   0  0  0  0  0  0  0  0  0  0  0  0
   12.9852   13.4245  -17.3544 N   0  0  0  0  0  0  0  0  0  0  0  0
   12.9306   12.7525  -18.6456 C   0  0  0  0  0  0  0  0  0  0  0  0
   11.6259   13.0543  -19.3905 C   0  0  0  0  0  0  0  0  0  0  0  0
   10.4049   12.8645  -18.4788 C   0  0  0  0  0  0  0  0  0  0  0  0
   10.5149   13.5068  -17.0865 C   0  0  0  0  0  0  0  0  0  0  0  0
   11.8742   13.2217  -16.4328 C   0  0  0  0  0  0  0  0  0  0  0  0
   10.1626   14.9934  -17.0865 C   0  0  0  0  0  0  0  0  0  0  0  0
   11.6723   14.4164  -20.0829 C   0  0  0  0  0  0  0  0  0  0  0  0
    9.6498   13.5267  -13.0559 N   0  0  0  0  0  0  0  0  0  0  0  0
   10.5509   14.1321  -12.2232 C   0  0  0  0  0  0  0  0  0  0  0  0
   10.3946   14.0727  -11.0088 O   0  0  0  0  0  0  0  0  0  0  0  0
    8.8722   13.0521  -12.6155 H   0  0  0  0  0  0  0  0  0  0  0  0
    9.7105   13.4940  -14.0603 H   0  0  0  0  0  0  0  0  0  0  0  0
  3  5  1  0  0  0
  4  2  2  0  0  0
  5  6  2  0  0  0
  6  8  1  0  0  0
  7 15  1  0  0  0
  7  1  2  0  0  0
 16 15  1  0  0  0
 16 17  1  0  0  0
 17 18  1  0  0  0
 17 22  1  0  0  0
 18 19  1  0  0  0
 19 20  1  0  0  0
 19 21  1  0  0  0
 20 15  1  0  0  0
  9  3  1  0  0  0
  9 10  2  0  0  0
 11 12  2  0  0  0
 12 24  1  0  0  0
 13  8  2  0  0  0
 24 23  1  0  0  0
  4  1  1  0  0  0
  5  2  1  0  0  0
  6  7  1  0  0  0
  8  9  1  0  0  0
 10 11  1  0  0  0
 12 13  1  0  0  0
 24 25  2  0  0  0
  3 14  1  0  0  0
 23 26  1  0  0  0
 23 27  1  0  0  0
M  END
> <minimizedAffinity>
-8.54093

$$$$
CHEMBL3718794


 27 30  0  0  0  0  0  0  0  0999 V2000
   12.5065   13.8112  -18.8101 N   0  0  0  0  0  0  0  0  0  0  0  0
   14.4752   15.2054  -18.9151 N   0  0  0  0  0  0  0  0  0  0  0  0
   15.1372   16.0706  -16.7897 N   0  0  0  0  0  0  0  0  0  0  0  0
   13.5108   14.4411  -19.4472 C   0  0  0  0  0  0  0  0  0  0  0  0
   14.3124   15.3347  -17.5916 C   0  0  0  0  0  0  0  0  0  0  0  0
   13.3219   14.7658  -16.8053 C   0  0  0  0  0  0  0  0  0  0  0  0
   12.4047   13.9053  -17.4563 C   0  0  0  0  0  0  0  0  0  0  0  0
   13.5211   15.2820  -15.4791 C   0  0  0  0  0  0  0  0  0  0  0  0
   14.6884   16.0488  -15.4904 C   0  0  0  0  0  0  0  0  0  0  0  0
   15.2095   16.6550  -14.3423 C   0  0  0  0  0  0  0  0  0  0  0  0
   14.5169   16.4671  -13.1396 C   0  0  0  0  0  0  0  0  0  0  0  0
   13.3264   15.7341  -13.0872 C   0  0  0  0  0  0  0  0  0  0  0  0
   12.8087   15.1753  -14.2633 C   0  0  0  0  0  0  0  0  0  0  0  0
   15.9466   16.5687  -17.1271 H   0  0  0  0  0  0  0  0  0  0  0  0
   11.4253   13.1700  -16.8137 N   0  0  0  0  0  0  0  0  0  0  0  0
   11.2236   11.7613  -17.1243 C   0  0  0  0  0  0  0  0  0  0  0  0
    9.8982   11.5231  -17.8556 C   0  0  0  0  0  0  0  0  0  0  0  0
    8.7340   12.2316  -17.1480 C   0  0  0  0  0  0  0  0  0  0  0  0
    8.9957   13.6929  -16.7489 C   0  0  0  0  0  0  0  0  0  0  0  0
   10.3702   13.8661  -16.0878 C   0  0  0  0  0  0  0  0  0  0  0  0
    8.7677   14.6743  -17.8974 C   0  0  0  0  0  0  0  0  0  0  0  0
   10.0068   11.8526  -19.3443 C   0  0  0  0  0  0  0  0  0  0  0  0
   11.4754   14.8789  -11.7098 N   0  0  0  0  0  0  0  0  0  0  0  0
   12.6563   15.5676  -11.7647 C   0  0  0  0  0  0  0  0  0  0  0  0
   13.1524   16.0107  -10.7350 O   0  0  0  0  0  0  0  0  0  0  0  0
   11.0539   14.7725  -10.7960 H   0  0  0  0  0  0  0  0  0  0  0  0
   11.0092   14.4520  -12.4933 H   0  0  0  0  0  0  0  0  0  0  0  0
  3  5  1  0  0  0
  4  2  2  0  0  0
  5  6  2  0  0  0
  6  8  1  0  0  0
  7 15  1  0  0  0
  7  1  2  0  0  0
 16 15  1  0  0  0
 16 17  1  0  0  0
 17 18  1  0  0  0
 17 22  1  0  0  0
 18 19  1  0  0  0
 19 20  1  0  0  0
 19 21  1  0  0  0
 20 15  1  0  0  0
  9  3  1  0  0  0
  9 10  2  0  0  0
 11 12  2  0  0  0
 12 24  1  0  0  0
 13  8  2  0  0  0
 24 23  1  0  0  0
  4  1  1  0  0  0
  5  2  1  0  0  0
  6  7  1  0  0  0
  8  9  1  0  0  0
 10 11  1  0  0  0
 12 13  1  0  0  0
 24 25  2  0  0  0
  3 14  1  0  0  0
 23 26  1  0  0  0
 23 27  1  0  0  0
M  END
> <minimizedAffinity>
-8.47594

$$$$
CHEMBL3718794


 27 30  0  0  0  0  0  0  0  0999 V2000
    9.9331   13.4851  -18.0461 N   0  0  0  0  0  0  0  0  0  0  0  0
    8.3117   12.5667  -16.5104 N   0  0  0  0  0  0  0  0  0  0  0  0
    8.7909   13.0569  -14.2225 N   0  0  0  0  0  0  0  0  0  0  0  0
    8.8325   12.7793  -17.7273 C   0  0  0  0  0  0  0  0  0  0  0  0
    9.0696   13.1260  -15.5576 C   0  0  0  0  0  0  0  0  0  0  0  0
   10.2328   13.8610  -15.7300 C   0  0  0  0  0  0  0  0  0  0  0  0
   10.6466   14.0992  -17.0632 C   0  0  0  0  0  0  0  0  0  0  0  0
   10.7180   14.1536  -14.4093 C   0  0  0  0  0  0  0  0  0  0  0  0
    9.7725   13.6859  -13.4939 C   0  0  0  0  0  0  0  0  0  0  0  0
    9.9033   13.8597  -12.1119 C   0  0  0  0  0  0  0  0  0  0  0  0
   11.0369   14.5395  -11.6492 C   0  0  0  0  0  0  0  0  0  0  0  0
   12.0256   14.9968  -12.5272 C   0  0  0  0  0  0  0  0  0  0  0  0
   11.8847   14.7691  -13.9026 C   0  0  0  0  0  0  0  0  0  0  0  0
    7.9822   12.5882  -13.8436 H   0  0  0  0  0  0  0  0  0  0  0  0
   11.7151   14.9000  -17.4230 N   0  0  0  0  0  0  0  0  0  0  0  0
   12.0943   15.0570  -18.8207 C   0  0  0  0  0  0  0  0  0  0  0  0
   13.4358   14.3824  -19.1264 C   0  0  0  0  0  0  0  0  0  0  0  0
   14.5029   14.7650  -18.0905 C   0  0  0  0  0  0  0  0  0  0  0  0
   14.0579   14.6772  -16.6216 C   0  0  0  0  0  0  0  0  0  0  0  0
   12.6757   15.3090  -16.4059 C   0  0  0  0  0  0  0  0  0  0  0  0
   14.1528   13.2620  -16.0538 C   0  0  0  0  0  0  0  0  0  0  0  0
   13.2788   12.8744  -19.3213 C   0  0  0  0  0  0  0  0  0  0  0  0
   14.1887   16.1367  -12.8032 N   0  0  0  0  0  0  0  0  0  0  0  0
   13.1960   15.7249  -11.9566 C   0  0  0  0  0  0  0  0  0  0  0  0
   13.2708   15.9792  -10.7597 O   0  0  0  0  0  0  0  0  0  0  0  0
   14.9617   16.6393  -12.3863 H   0  0  0  0  0  0  0  0  0  0  0  0
   14.2003   16.0036  -13.8011 H   0  0  0  0  0  0  0  0  0  0  0  0
  3  5  1  0  0  0
  4  2  2  0  0  0
  5  6  2  0  0  0
  6  8  1  0  0  0
  7 15  1  0  0  0
  7  1  2  0  0  0
 16 15  1  0  0  0
 16 17  1  0  0  0
 17 18  1  0  0  0
 17 22  1  0  0  0
 18 19  1  0  0  0
 19 20  1  0  0  0
 19 21  1  0  0  0
 20 15  1  0  0  0
  9  3  1  0  0  0
  9 10  2  0  0  0
 11 12  2  0  0  0
 12 24  1  0  0  0
 13  8  2  0  0  0
 24 23  1  0  0  0
  4  1  1  0  0  0
  5  2  1  0  0  0
  6  7  1  0  0  0
  8  9  1  0  0  0
 10 11  1  0  0  0
 12 13  1  0  0  0
 24 25  2  0  0  0
  3 14  1  0  0  0
 23 26  1  0  0  0
 23 27  1  0  0  0
M  END
> <minimizedAffinity>
-8.40283

$$$$
CHEMBL3718794


 27 30  0  0  0  0  0  0  0  0999 V2000
   12.8429   14.2540  -18.1352 N   0  0  0  0  0  0  0  0  0  0  0  0
   13.5895   14.3796  -20.4281 N   0  0  0  0  0  0  0  0  0  0  0  0
   12.1759   13.2008  -21.9501 N   0  0  0  0  0  0  0  0  0  0  0  0
   13.6863   14.6293  -19.1145 C   0  0  0  0  0  0  0  0  0  0  0  0
   12.5166   13.6237  -20.6971 C   0  0  0  0  0  0  0  0  0  0  0  0
   11.5748   13.1475  -19.7974 C   0  0  0  0  0  0  0  0  0  0  0  0
   11.7245   13.5436  -18.4461 C   0  0  0  0  0  0  0  0  0  0  0  0
   10.6859   12.3119  -20.5569 C   0  0  0  0  0  0  0  0  0  0  0  0
   11.0544   12.4070  -21.9007 C   0  0  0  0  0  0  0  0  0  0  0  0
   10.3570   11.7606  -22.9267 C   0  0  0  0  0  0  0  0  0  0  0  0
    9.2410   10.9941  -22.5680 C   0  0  0  0  0  0  0  0  0  0  0  0
    8.8546   10.8442  -21.2317 C   0  0  0  0  0  0  0  0  0  0  0  0
    9.6002   11.4708  -20.2243 C   0  0  0  0  0  0  0  0  0  0  0  0
   12.6989   13.4338  -22.7804 H   0  0  0  0  0  0  0  0  0  0  0  0
   10.8226   13.2549  -17.4382 N   0  0  0  0  0  0  0  0  0  0  0  0
   10.3414   14.2992  -16.5439 C   0  0  0  0  0  0  0  0  0  0  0  0
   10.8777   14.1214  -15.1195 C   0  0  0  0  0  0  0  0  0  0  0  0
   10.6963   12.6772  -14.6300 C   0  0  0  0  0  0  0  0  0  0  0  0
   11.1287   11.5852  -15.6219 C   0  0  0  0  0  0  0  0  0  0  0  0
   10.6154   11.8679  -17.0407 C   0  0  0  0  0  0  0  0  0  0  0  0
   12.6304   11.3068  -15.5843 C   0  0  0  0  0  0  0  0  0  0  0  0
   12.3084   14.6427  -14.9850 C   0  0  0  0  0  0  0  0  0  0  0  0
    7.3296    8.9910  -21.7743 N   0  0  0  0  0  0  0  0  0  0  0  0
    7.6455   10.0228  -20.9333 C   0  0  0  0  0  0  0  0  0  0  0  0
    6.9524   10.2386  -19.9454 O   0  0  0  0  0  0  0  0  0  0  0  0
    6.5112    8.4454  -21.5362 H   0  0  0  0  0  0  0  0  0  0  0  0
    7.8542    8.7174  -22.5888 H   0  0  0  0  0  0  0  0  0  0  0  0
  3  5  1  0  0  0
  4  2  2  0  0  0
  5  6  2  0  0  0
  6  8  1  0  0  0
  7 15  1  0  0  0
  7  1  2  0  0  0
 16 15  1  0  0  0
 16 17  1  0  0  0
 17 18  1  0  0  0
 17 22  1  0  0  0
 18 19  1  0  0  0
 19 20  1  0  0  0
 19 21  1  0  0  0
 20 15  1  0  0  0
  9  3  1  0  0  0
  9 10  2  0  0  0
 11 12  2  0  0  0
 12 24  1  0  0  0
 13  8  2  0  0  0
 24 23  1  0  0  0
  4  1  1  0  0  0
  5  2  1  0  0  0
  6  7  1  0  0  0
  8  9  1  0  0  0
 10 11  1  0  0  0
 12 13  1  0  0  0
 24 25  2  0  0  0
  3 14  1  0  0  0
 23 26  1  0  0  0
 23 27  1  0  0  0
M  END
> <minimizedAffinity>
-8.06388

$$$$
CHEMBL3718794


 27 30  0  0  0  0  0  0  0  0999 V2000
   13.1715   13.6971  -17.7841 N   0  0  0  0  0  0  0  0  0  0  0  0
   13.7296   14.3439  -20.0427 N   0  0  0  0  0  0  0  0  0  0  0  0
   12.2726   13.4029  -21.6845 N   0  0  0  0  0  0  0  0  0  0  0  0
   13.9134   14.3254  -18.7148 C   0  0  0  0  0  0  0  0  0  0  0  0
   12.6844   13.5835  -20.3951 C   0  0  0  0  0  0  0  0  0  0  0  0
   11.8443   12.8660  -19.5569 C   0  0  0  0  0  0  0  0  0  0  0  0
   12.0752   12.9864  -18.1650 C   0  0  0  0  0  0  0  0  0  0  0  0
   10.9488   12.1416  -20.4163 C   0  0  0  0  0  0  0  0  0  0  0  0
   11.2059   12.5367  -21.7310 C   0  0  0  0  0  0  0  0  0  0  0  0
   10.4695   12.0654  -22.8231 C   0  0  0  0  0  0  0  0  0  0  0  0
    9.4307   11.1629  -22.5626 C   0  0  0  0  0  0  0  0  0  0  0  0
    9.1584   10.7146  -21.2656 C   0  0  0  0  0  0  0  0  0  0  0  0
    9.9424   11.1737  -20.1988 C   0  0  0  0  0  0  0  0  0  0  0  0
   12.7153   13.8385  -22.4791 H   0  0  0  0  0  0  0  0  0  0  0  0
   11.2723   12.4326  -17.1846 N   0  0  0  0  0  0  0  0  0  0  0  0
    9.8857   12.0834  -17.4628 C   0  0  0  0  0  0  0  0  0  0  0  0
    8.9073   13.0013  -16.7224 C   0  0  0  0  0  0  0  0  0  0  0  0
    9.2838   13.1405  -15.2402 C   0  0  0  0  0  0  0  0  0  0  0  0
   10.7689   13.4227  -14.9604 C   0  0  0  0  0  0  0  0  0  0  0  0
   11.6879   12.5152  -15.7899 C   0  0  0  0  0  0  0  0  0  0  0  0
   11.1292   14.9017  -15.0908 C   0  0  0  0  0  0  0  0  0  0  0  0
    8.7321   14.3386  -17.4420 C   0  0  0  0  0  0  0  0  0  0  0  0
    7.2428    9.8973  -19.9552 N   0  0  0  0  0  0  0  0  0  0  0  0
    8.0254    9.7640  -21.0694 C   0  0  0  0  0  0  0  0  0  0  0  0
    7.7716    8.8915  -21.8922 O   0  0  0  0  0  0  0  0  0  0  0  0
    6.4749    9.2453  -19.8590 H   0  0  0  0  0  0  0  0  0  0  0  0
    7.3524   10.6003  -19.2430 H   0  0  0  0  0  0  0  0  0  0  0  0
  3  5  1  0  0  0
  4  2  2  0  0  0
  5  6  2  0  0  0
  6  8  1  0  0  0
  7 15  1  0  0  0
  7  1  2  0  0  0
 16 15  1  0  0  0
 16 17  1  0  0  0
 17 18  1  0  0  0
 17 22  1  0  0  0
 18 19  1  0  0  0
 19 20  1  0  0  0
 19 21  1  0  0  0
 20 15  1  0  0  0
  9  3  1  0  0  0
  9 10  2  0  0  0
 11 12  2  0  0  0
 12 24  1  0  0  0
 13  8  2  0  0  0
 24 23  1  0  0  0
  4  1  1  0  0  0
  5  2  1  0  0  0
  6  7  1  0  0  0
  8  9  1  0  0  0
 10 11  1  0  0  0
 12 13  1  0  0  0
 24 25  2  0  0  0
  3 14  1  0  0  0
 23 26  1  0  0  0
 23 27  1  0  0  0
M  END
> <minimizedAffinity>
-7.99901

$$$$
CHEMBL3718794


 27 30  0  0  0  0  0  0  0  0999 V2000
   10.4737   12.9560  -13.6804 N   0  0  0  0  0  0  0  0  0  0  0  0
   11.1641   14.7875  -12.2663 N   0  0  0  0  0  0  0  0  0  0  0  0
   12.9260   16.0975  -13.2064 N   0  0  0  0  0  0  0  0  0  0  0  0
   10.4336   13.7029  -12.5616 C   0  0  0  0  0  0  0  0  0  0  0  0
   12.0407   15.0584  -13.2426 C   0  0  0  0  0  0  0  0  0  0  0  0
   12.2110   14.3725  -14.4358 C   0  0  0  0  0  0  0  0  0  0  0  0
   11.3273   13.2944  -14.6849 C   0  0  0  0  0  0  0  0  0  0  0  0
   13.3320   14.9875  -15.0917 C   0  0  0  0  0  0  0  0  0  0  0  0
   13.7217   16.0897  -14.3276 C   0  0  0  0  0  0  0  0  0  0  0  0
   14.7542   16.9523  -14.7110 C   0  0  0  0  0  0  0  0  0  0  0  0
   15.4082   16.6825  -15.9196 C   0  0  0  0  0  0  0  0  0  0  0  0
   15.0733   15.5714  -16.7011 C   0  0  0  0  0  0  0  0  0  0  0  0
   14.0627   14.7031  -16.2674 C   0  0  0  0  0  0  0  0  0  0  0  0
   12.9845   16.7561  -12.4448 H   0  0  0  0  0  0  0  0  0  0  0  0
   11.2809   12.5728  -15.8638 N   0  0  0  0  0  0  0  0  0  0  0  0
   12.1034   12.9514  -17.0049 C   0  0  0  0  0  0  0  0  0  0  0  0
   11.2586   13.5011  -18.1590 C   0  0  0  0  0  0  0  0  0  0  0  0
   10.0636   12.5857  -18.4626 C   0  0  0  0  0  0  0  0  0  0  0  0
    9.2577   12.1246  -17.2373 C   0  0  0  0  0  0  0  0  0  0  0  0
   10.1721   11.6559  -16.0970 C   0  0  0  0  0  0  0  0  0  0  0  0
    8.2276   13.1557  -16.7792 C   0  0  0  0  0  0  0  0  0  0  0  0
   10.8730   14.9628  -17.9311 C   0  0  0  0  0  0  0  0  0  0  0  0
   15.2042   15.7340  -19.1529 N   0  0  0  0  0  0  0  0  0  0  0  0
   15.8074   15.3614  -17.9828 C   0  0  0  0  0  0  0  0  0  0  0  0
   16.9385   14.8892  -18.0032 O   0  0  0  0  0  0  0  0  0  0  0  0
   15.7342   15.5904  -20.0029 H   0  0  0  0  0  0  0  0  0  0  0  0
   14.2949   16.1583  -19.2340 H   0  0  0  0  0  0  0  0  0  0  0  0
  3  5  1  0  0  0
  4  2  2  0  0  0
  5  6  2  0  0  0
  6  8  1  0  0  0
  7 15  1  0  0  0
  7  1  2  0  0  0
 16 15  1  0  0  0
 16 17  1  0  0  0
 17 18  1  0  0  0
 17 22  1  0  0  0
 18 19  1  0  0  0
 19 20  1  0  0  0
 19 21  1  0  0  0
 20 15  1  0  0  0
  9  3  1  0  0  0
  9 10  2  0  0  0
 11 12  2  0  0  0
 12 24  1  0  0  0
 13  8  2  0  0  0
 24 23  1  0  0  0
  4  1  1  0  0  0
  5  2  1  0  0  0
  6  7  1  0  0  0
  8  9  1  0  0  0
 10 11  1  0  0  0
 12 13  1  0  0  0
 24 25  2  0  0  0
  3 14  1  0  0  0
 23 26  1  0  0  0
 23 27  1  0  0  0
M  END
> <minimizedAffinity>
-7.78046

$$$$
CHEMBL3718794


 27 30  0  0  0  0  0  0  0  0999 V2000
   10.6144   12.2575  -20.0236 N   0  0  0  0  0  0  0  0  0  0  0  0
    8.9504   12.2756  -18.2739 N   0  0  0  0  0  0  0  0  0  0  0  0
    9.6133   13.5258  -16.3498 N   0  0  0  0  0  0  0  0  0  0  0  0
    9.4359   11.9160  -19.4706 C   0  0  0  0  0  0  0  0  0  0  0  0
    9.8319   13.0292  -17.6030 C   0  0  0  0  0  0  0  0  0  0  0  0
   11.0840   13.4435  -18.0316 C   0  0  0  0  0  0  0  0  0  0  0  0
   11.4620   13.0796  -19.3469 C   0  0  0  0  0  0  0  0  0  0  0  0
   11.6740   14.1404  -16.9220 C   0  0  0  0  0  0  0  0  0  0  0  0
   10.7151   14.2203  -15.9096 C   0  0  0  0  0  0  0  0  0  0  0  0
   10.9402   14.8899  -14.7020 C   0  0  0  0  0  0  0  0  0  0  0  0
   12.1864   15.5036  -14.5244 C   0  0  0  0  0  0  0  0  0  0  0  0
   13.1882   15.4217  -15.4977 C   0  0  0  0  0  0  0  0  0  0  0  0
   12.9452   14.7074  -16.6784 C   0  0  0  0  0  0  0  0  0  0  0  0
    8.7624   13.3761  -15.8296 H   0  0  0  0  0  0  0  0  0  0  0  0
   12.6213   13.4967  -19.9751 N   0  0  0  0  0  0  0  0  0  0  0  0
   12.8556   14.9076  -20.2516 C   0  0  0  0  0  0  0  0  0  0  0  0
   12.7984   15.2113  -21.7524 C   0  0  0  0  0  0  0  0  0  0  0  0
   13.6468   14.2160  -22.5571 C   0  0  0  0  0  0  0  0  0  0  0  0
   13.4507   12.7357  -22.1918 C   0  0  0  0  0  0  0  0  0  0  0  0
   13.4476   12.5190  -20.6721 C   0  0  0  0  0  0  0  0  0  0  0  0
   12.2384   12.1081  -22.8778 C   0  0  0  0  0  0  0  0  0  0  0  0
   11.3581   15.3363  -22.2494 C   0  0  0  0  0  0  0  0  0  0  0  0
   15.1837   16.6155  -16.3025 N   0  0  0  0  0  0  0  0  0  0  0  0
   14.4836   16.1150  -15.2389 C   0  0  0  0  0  0  0  0  0  0  0  0
   14.9142   16.2640  -14.1009 O   0  0  0  0  0  0  0  0  0  0  0  0
   16.0514   17.0914  -16.0916 H   0  0  0  0  0  0  0  0  0  0  0  0
   14.8961   16.5710  -17.2663 H   0  0  0  0  0  0  0  0  0  0  0  0
  3  5  1  0  0  0
  4  2  2  0  0  0
  5  6  2  0  0  0
  6  8  1  0  0  0
  7 15  1  0  0  0
  7  1  2  0  0  0
 16 15  1  0  0  0
 16 17  1  0  0  0
 17 18  1  0  0  0
 17 22  1  0  0  0
 18 19  1  0  0  0
 19 20  1  0  0  0
 19 21  1  0  0  0
 20 15  1  0  0  0
  9  3  1  0  0  0
  9 10  2  0  0  0
 11 12  2  0  0  0
 12 24  1  0  0  0
 13  8  2  0  0  0
 24 23  1  0  0  0
  4  1  1  0  0  0
  5  2  1  0  0  0
  6  7  1  0  0  0
  8  9  1  0  0  0
 10 11  1  0  0  0
 12 13  1  0  0  0
 24 25  2  0  0  0
  3 14  1  0  0  0
 23 26  1  0  0  0
 23 27  1  0  0  0
M  END
> <minimizedAffinity>
-7.73016

$$$$
CHEMBL3719102


 26 29  0  0  0  0  0  0  0  0999 V2000
   10.1718   13.8206  -13.6902 N   0  0  0  0  0  0  0  0  0  0  0  0
   11.2440   14.9268  -11.8290 N   0  0  0  0  0  0  0  0  0  0  0  0
   13.2594   16.0592  -12.4341 N   0  0  0  0  0  0  0  0  0  0  0  0
   10.2919   14.1713  -12.3959 C   0  0  0  0  0  0  0  0  0  0  0  0
   12.1643   15.2980  -12.7292 C   0  0  0  0  0  0  0  0  0  0  0  0
   12.1842   15.0009  -14.0832 C   0  0  0  0  0  0  0  0  0  0  0  0
   11.0878   14.2645  -14.5930 C   0  0  0  0  0  0  0  0  0  0  0  0
   13.4140   15.5406  -14.5925 C   0  0  0  0  0  0  0  0  0  0  0  0
   14.0381   16.2348  -13.5537 C   0  0  0  0  0  0  0  0  0  0  0  0
   15.2397   16.9311  -13.7213 C   0  0  0  0  0  0  0  0  0  0  0  0
   15.8219   16.9211  -14.9953 C   0  0  0  0  0  0  0  0  0  0  0  0
   15.2481   16.2132  -16.0573 C   0  0  0  0  0  0  0  0  0  0  0  0
   14.0643   15.4942  -15.8459 C   0  0  0  0  0  0  0  0  0  0  0  0
   13.4606   16.4160  -11.5124 H   0  0  0  0  0  0  0  0  0  0  0  0
   10.9021   13.9674  -15.9316 N   0  0  0  0  0  0  0  0  0  0  0  0
    9.6572   14.3290  -16.5977 C   0  0  0  0  0  0  0  0  0  0  0  0
    8.8562   13.0880  -16.9780 C   0  0  0  0  0  0  0  0  0  0  0  0
    9.7150   12.0985  -17.7601 C   0  0  0  0  0  0  0  0  0  0  0  0
   10.9913   11.7199  -16.9950 C   0  0  0  0  0  0  0  0  0  0  0  0
   11.7653   12.9771  -16.5677 C   0  0  0  0  0  0  0  0  0  0  0  0
   10.6854   10.8004  -15.8109 C   0  0  0  0  0  0  0  0  0  0  0  0
   16.0622   17.4721  -18.0091 N   0  0  0  0  0  0  0  0  0  0  0  0
   15.9239   16.2617  -17.3865 C   0  0  0  0  0  0  0  0  0  0  0  0
   16.3726   15.2502  -17.9141 O   0  0  0  0  0  0  0  0  0  0  0  0
   16.5357   17.4714  -18.9033 H   0  0  0  0  0  0  0  0  0  0  0  0
   15.7529   18.3578  -17.6439 H   0  0  0  0  0  0  0  0  0  0  0  0
  3  5  1  0  0  0
  4  2  2  0  0  0
  5  6  2  0  0  0
  6  8  1  0  0  0
  7 15  1  0  0  0
  7  1  2  0  0  0
 16 15  1  0  0  0
 16 17  1  0  0  0
 17 18  1  0  0  0
 18 19  1  0  0  0
 19 20  1  0  0  0
 19 21  1  0  0  0
 20 15  1  0  0  0
  9  3  1  0  0  0
  9 10  2  0  0  0
 11 12  2  0  0  0
 12 23  1  0  0  0
 13  8  2  0  0  0
 23 22  1  0  0  0
  4  1  1  0  0  0
  5  2  1  0  0  0
  6  7  1  0  0  0
  8  9  1  0  0  0
 10 11  1  0  0  0
 12 13  1  0  0  0
 23 24  2  0  0  0
  3 14  1  0  0  0
 22 25  1  0  0  0
 22 26  1  0  0  0
M  END
> <minimizedAffinity>
-9.53152

$$$$
CHEMBL3719102


 26 29  0  0  0  0  0  0  0  0999 V2000
   14.7928   16.4046  -15.5263 N   0  0  0  0  0  0  0  0  0  0  0  0
   14.7964   16.7429  -13.1340 N   0  0  0  0  0  0  0  0  0  0  0  0
   12.9443   15.7134  -12.0295 N   0  0  0  0  0  0  0  0  0  0  0  0
   15.2809   16.9022  -14.3745 C   0  0  0  0  0  0  0  0  0  0  0  0
   13.6677   16.0212  -13.1465 C   0  0  0  0  0  0  0  0  0  0  0  0
   13.0393   15.4617  -14.2483 C   0  0  0  0  0  0  0  0  0  0  0  0
   13.6796   15.6227  -15.5005 C   0  0  0  0  0  0  0  0  0  0  0  0
   11.8247   14.8717  -13.7585 C   0  0  0  0  0  0  0  0  0  0  0  0
   11.8173   15.0022  -12.3680 C   0  0  0  0  0  0  0  0  0  0  0  0
   10.7964   14.4855  -11.5632 C   0  0  0  0  0  0  0  0  0  0  0  0
    9.7488   13.8087  -12.2008 C   0  0  0  0  0  0  0  0  0  0  0  0
    9.6992   13.6813  -13.5935 C   0  0  0  0  0  0  0  0  0  0  0  0
   10.7183   14.2440  -14.3732 C   0  0  0  0  0  0  0  0  0  0  0  0
   13.2073   15.9956  -11.0975 H   0  0  0  0  0  0  0  0  0  0  0  0
   13.2413   15.0487  -16.6808 N   0  0  0  0  0  0  0  0  0  0  0  0
   11.9273   15.3828  -17.2157 C   0  0  0  0  0  0  0  0  0  0  0  0
   10.9867   14.1839  -17.1529 C   0  0  0  0  0  0  0  0  0  0  0  0
   11.6230   12.9527  -17.7915 C   0  0  0  0  0  0  0  0  0  0  0  0
   12.9840   12.6214  -17.1626 C   0  0  0  0  0  0  0  0  0  0  0  0
   13.9075   13.8499  -17.1801 C   0  0  0  0  0  0  0  0  0  0  0  0
   12.8270   12.0377  -15.7570 C   0  0  0  0  0  0  0  0  0  0  0  0
    7.4968   12.6008  -13.3958 N   0  0  0  0  0  0  0  0  0  0  0  0
    8.5554   12.9360  -14.1951 C   0  0  0  0  0  0  0  0  0  0  0  0
    8.5376   12.6419  -15.3851 O   0  0  0  0  0  0  0  0  0  0  0  0
    6.7326   12.1064  -13.8379 H   0  0  0  0  0  0  0  0  0  0  0  0
    7.4077   12.8222  -12.4178 H   0  0  0  0  0  0  0  0  0  0  0  0
  3  5  1  0  0  0
  4  2  2  0  0  0
  5  6  2  0  0  0
  6  8  1  0  0  0
  7 15  1  0  0  0
  7  1  2  0  0  0
 16 15  1  0  0  0
 16 17  1  0  0  0
 17 18  1  0  0  0
 18 19  1  0  0  0
 19 20  1  0  0  0
 19 21  1  0  0  0
 20 15  1  0  0  0
  9  3  1  0  0  0
  9 10  2  0  0  0
 11 12  2  0  0  0
 12 23  1  0  0  0
 13  8  2  0  0  0
 23 22  1  0  0  0
  4  1  1  0  0  0
  5  2  1  0  0  0
  6  7  1  0  0  0
  8  9  1  0  0  0
 10 11  1  0  0  0
 12 13  1  0  0  0
 23 24  2  0  0  0
  3 14  1  0  0  0
 22 25  1  0  0  0
 22 26  1  0  0  0
M  END
> <minimizedAffinity>
-8.87508

$$$$
CHEMBL3719102


 26 29  0  0  0  0  0  0  0  0999 V2000
   11.9698   14.7078  -13.4062 N   0  0  0  0  0  0  0  0  0  0  0  0
   13.3838   15.9356  -11.8797 N   0  0  0  0  0  0  0  0  0  0  0  0
   15.1994   17.0515  -12.9606 N   0  0  0  0  0  0  0  0  0  0  0  0
   12.3515   15.1370  -12.1886 C   0  0  0  0  0  0  0  0  0  0  0  0
   14.0849   16.2620  -12.9738 C   0  0  0  0  0  0  0  0  0  0  0  0
   13.8260   15.8841  -14.2823 C   0  0  0  0  0  0  0  0  0  0  0  0
   12.6644   15.1065  -14.5060 C   0  0  0  0  0  0  0  0  0  0  0  0
   14.9081   16.4055  -15.0700 C   0  0  0  0  0  0  0  0  0  0  0  0
   15.7205   17.1678  -14.2277 C   0  0  0  0  0  0  0  0  0  0  0  0
   16.8433   17.8657  -14.6850 C   0  0  0  0  0  0  0  0  0  0  0  0
   17.1442   17.7853  -16.0507 C   0  0  0  0  0  0  0  0  0  0  0  0
   16.3763   17.0086  -16.9254 C   0  0  0  0  0  0  0  0  0  0  0  0
   15.2807   16.2908  -16.4280 C   0  0  0  0  0  0  0  0  0  0  0  0
   15.5819   17.4652  -12.1241 H   0  0  0  0  0  0  0  0  0  0  0  0
   12.2079   14.7272  -15.7560 N   0  0  0  0  0  0  0  0  0  0  0  0
   10.9564   15.2650  -16.2745 C   0  0  0  0  0  0  0  0  0  0  0  0
    9.8913   14.1781  -16.3770 C   0  0  0  0  0  0  0  0  0  0  0  0
   10.4138   12.9681  -17.1459 C   0  0  0  0  0  0  0  0  0  0  0  0
   11.7091   12.4169  -16.5328 C   0  0  0  0  0  0  0  0  0  0  0  0
   12.7588   13.5294  -16.3821 C   0  0  0  0  0  0  0  0  0  0  0  0
   11.4423   11.6927  -15.2116 C   0  0  0  0  0  0  0  0  0  0  0  0
   15.7711   16.8170  -19.3033 N   0  0  0  0  0  0  0  0  0  0  0  0
   16.7557   16.9844  -18.3681 C   0  0  0  0  0  0  0  0  0  0  0  0
   17.9184   17.1329  -18.7272 O   0  0  0  0  0  0  0  0  0  0  0  0
   16.0609   16.8173  -20.2727 H   0  0  0  0  0  0  0  0  0  0  0  0
   14.7887   16.7156  -19.1083 H   0  0  0  0  0  0  0  0  0  0  0  0
  3  5  1  0  0  0
  4  2  2  0  0  0
  5  6  2  0  0  0
  6  8  1  0  0  0
  7 15  1  0  0  0
  7  1  2  0  0  0
 16 15  1  0  0  0
 16 17  1  0  0  0
 17 18  1  0  0  0
 18 19  1  0  0  0
 19 20  1  0  0  0
 19 21  1  0  0  0
 20 15  1  0  0  0
  9  3  1  0  0  0
  9 10  2  0  0  0
 11 12  2  0  0  0
 12 23  1  0  0  0
 13  8  2  0  0  0
 23 22  1  0  0  0
  4  1  1  0  0  0
  5  2  1  0  0  0
  6  7  1  0  0  0
  8  9  1  0  0  0
 10 11  1  0  0  0
 12 13  1  0  0  0
 23 24  2  0  0  0
  3 14  1  0  0  0
 22 25  1  0  0  0
 22 26  1  0  0  0
M  END
> <minimizedAffinity>
-8.84306

$$$$
CHEMBL3719102


 26 29  0  0  0  0  0  0  0  0999 V2000
   10.0565   13.3579  -12.5197 N   0  0  0  0  0  0  0  0  0  0  0  0
   11.2419   15.0801  -11.3088 N   0  0  0  0  0  0  0  0  0  0  0  0
   12.9927   16.0960  -12.5788 N   0  0  0  0  0  0  0  0  0  0  0  0
   10.3185   14.1160  -11.4385 C   0  0  0  0  0  0  0  0  0  0  0  0
   11.9690   15.2045  -12.4273 C   0  0  0  0  0  0  0  0  0  0  0  0
   11.8291   14.4874  -13.6055 C   0  0  0  0  0  0  0  0  0  0  0  0
   10.7700   13.5497  -13.6621 C   0  0  0  0  0  0  0  0  0  0  0  0
   12.8960   14.9192  -14.4649 C   0  0  0  0  0  0  0  0  0  0  0  0
   13.5733   15.9547  -13.8172 C   0  0  0  0  0  0  0  0  0  0  0  0
   14.6426   16.6429  -14.4002 C   0  0  0  0  0  0  0  0  0  0  0  0
   15.0307   16.2625  -15.6913 C   0  0  0  0  0  0  0  0  0  0  0  0
   14.4011   15.2102  -16.3653 C   0  0  0  0  0  0  0  0  0  0  0  0
   13.3585   14.5161  -15.7375 C   0  0  0  0  0  0  0  0  0  0  0  0
   13.2796   16.7451  -11.8622 H   0  0  0  0  0  0  0  0  0  0  0  0
   10.4305   12.8230  -14.7896 N   0  0  0  0  0  0  0  0  0  0  0  0
   11.3771   11.8754  -15.3645 C   0  0  0  0  0  0  0  0  0  0  0  0
   11.8696   12.3486  -16.7282 C   0  0  0  0  0  0  0  0  0  0  0  0
   10.6996   12.6925  -17.6455 C   0  0  0  0  0  0  0  0  0  0  0  0
    9.7582   13.7249  -17.0087 C   0  0  0  0  0  0  0  0  0  0  0  0
    9.3094   13.2667  -15.6120 C   0  0  0  0  0  0  0  0  0  0  0  0
   10.3871   15.1196  -16.9839 C   0  0  0  0  0  0  0  0  0  0  0  0
   16.0146   15.4537  -18.2078 N   0  0  0  0  0  0  0  0  0  0  0  0
   14.8660   14.8739  -17.7425 C   0  0  0  0  0  0  0  0  0  0  0  0
   14.2558   14.0785  -18.4481 O   0  0  0  0  0  0  0  0  0  0  0  0
   16.3082   15.1949  -19.1408 H   0  0  0  0  0  0  0  0  0  0  0  0
   16.5972   16.0945  -17.6945 H   0  0  0  0  0  0  0  0  0  0  0  0
  3  5  1  0  0  0
  4  2  2  0  0  0
  5  6  2  0  0  0
  6  8  1  0  0  0
  7 15  1  0  0  0
  7  1  2  0  0  0
 16 15  1  0  0  0
 16 17  1  0  0  0
 17 18  1  0  0  0
 18 19  1  0  0  0
 19 20  1  0  0  0
 19 21  1  0  0  0
 20 15  1  0  0  0
  9  3  1  0  0  0
  9 10  2  0  0  0
 11 12  2  0  0  0
 12 23  1  0  0  0
 13  8  2  0  0  0
 23 22  1  0  0  0
  4  1  1  0  0  0
  5  2  1  0  0  0
  6  7  1  0  0  0
  8  9  1  0  0  0
 10 11  1  0  0  0
 12 13  1  0  0  0
 23 24  2  0  0  0
  3 14  1  0  0  0
 22 25  1  0  0  0
 22 26  1  0  0  0
M  END
> <minimizedAffinity>
-8.63292

$$$$
CHEMBL3719102


 26 29  0  0  0  0  0  0  0  0999 V2000
    9.1330   13.4149  -15.4225 N   0  0  0  0  0  0  0  0  0  0  0  0
    9.1236   13.3787  -13.0067 N   0  0  0  0  0  0  0  0  0  0  0  0
   10.9785   14.5303  -12.0355 N   0  0  0  0  0  0  0  0  0  0  0  0
    8.6406   13.0675  -14.2186 C   0  0  0  0  0  0  0  0  0  0  0  0
   10.2557   14.0883  -13.1068 C   0  0  0  0  0  0  0  0  0  0  0  0
   10.8886   14.5027  -14.2686 C   0  0  0  0  0  0  0  0  0  0  0  0
   10.2497   14.1889  -15.4923 C   0  0  0  0  0  0  0  0  0  0  0  0
   12.1050   15.1440  -13.8536 C   0  0  0  0  0  0  0  0  0  0  0  0
   12.1094   15.1886  -12.4578 C   0  0  0  0  0  0  0  0  0  0  0  0
   13.1313   15.7976  -11.7217 C   0  0  0  0  0  0  0  0  0  0  0  0
   14.1831   16.3846  -12.4366 C   0  0  0  0  0  0  0  0  0  0  0  0
   14.2357   16.3365  -13.8340 C   0  0  0  0  0  0  0  0  0  0  0  0
   13.2154   15.6851  -14.5396 C   0  0  0  0  0  0  0  0  0  0  0  0
   10.7126   14.3681  -11.0762 H   0  0  0  0  0  0  0  0  0  0  0  0
   10.6927   14.6088  -16.7341 N   0  0  0  0  0  0  0  0  0  0  0  0
    9.9377   14.2731  -17.9347 C   0  0  0  0  0  0  0  0  0  0  0  0
   10.7107   13.2970  -18.8156 C   0  0  0  0  0  0  0  0  0  0  0  0
   12.1226   13.8059  -19.0913 C   0  0  0  0  0  0  0  0  0  0  0  0
   12.8866   14.1035  -17.7931 C   0  0  0  0  0  0  0  0  0  0  0  0
   12.0774   15.0444  -16.8864 C   0  0  0  0  0  0  0  0  0  0  0  0
   13.2935   12.8166  -17.0724 C   0  0  0  0  0  0  0  0  0  0  0  0
   15.3273   17.1659  -15.8780 N   0  0  0  0  0  0  0  0  0  0  0  0
   15.3840   16.9957  -14.5217 C   0  0  0  0  0  0  0  0  0  0  0  0
   16.3565   17.4032  -13.8964 O   0  0  0  0  0  0  0  0  0  0  0  0
   16.1169   17.6271  -16.3112 H   0  0  0  0  0  0  0  0  0  0  0  0
   14.5620   16.8912  -16.4717 H   0  0  0  0  0  0  0  0  0  0  0  0
  3  5  1  0  0  0
  4  2  2  0  0  0
  5  6  2  0  0  0
  6  8  1  0  0  0
  7 15  1  0  0  0
  7  1  2  0  0  0
 16 15  1  0  0  0
 16 17  1  0  0  0
 17 18  1  0  0  0
 18 19  1  0  0  0
 19 20  1  0  0  0
 19 21  1  0  0  0
 20 15  1  0  0  0
  9  3  1  0  0  0
  9 10  2  0  0  0
 11 12  2  0  0  0
 12 23  1  0  0  0
 13  8  2  0  0  0
 23 22  1  0  0  0
  4  1  1  0  0  0
  5  2  1  0  0  0
  6  7  1  0  0  0
  8  9  1  0  0  0
 10 11  1  0  0  0
 12 13  1  0  0  0
 23 24  2  0  0  0
  3 14  1  0  0  0
 22 25  1  0  0  0
 22 26  1  0  0  0
M  END
> <minimizedAffinity>
-8.59452

$$$$
CHEMBL3719102


 26 29  0  0  0  0  0  0  0  0999 V2000
   14.7610   15.0382  -18.9975 N   0  0  0  0  0  0  0  0  0  0  0  0
   15.5075   15.8799  -16.8594 N   0  0  0  0  0  0  0  0  0  0  0  0
   13.9846   15.4191  -15.0765 N   0  0  0  0  0  0  0  0  0  0  0  0
   15.6125   15.6891  -18.1828 C   0  0  0  0  0  0  0  0  0  0  0  0
   14.3667   15.3602  -16.3866 C   0  0  0  0  0  0  0  0  0  0  0  0
   13.3912   14.6826  -17.1017 C   0  0  0  0  0  0  0  0  0  0  0  0
   13.6411   14.4664  -18.4783 C   0  0  0  0  0  0  0  0  0  0  0  0
   12.3303   14.4119  -16.1721 C   0  0  0  0  0  0  0  0  0  0  0  0
   12.7492   14.8388  -14.9100 C   0  0  0  0  0  0  0  0  0  0  0  0
   11.9726   14.6760  -13.7579 C   0  0  0  0  0  0  0  0  0  0  0  0
   10.7267   14.0519  -13.8995 C   0  0  0  0  0  0  0  0  0  0  0  0
   10.2532   13.6364  -15.1490 C   0  0  0  0  0  0  0  0  0  0  0  0
   11.0396   13.8492  -16.2890 C   0  0  0  0  0  0  0  0  0  0  0  0
   14.5374   15.8505  -14.3516 H   0  0  0  0  0  0  0  0  0  0  0  0
   12.8216   13.7278  -19.3135 N   0  0  0  0  0  0  0  0  0  0  0  0
   13.3237   12.5175  -19.9518 C   0  0  0  0  0  0  0  0  0  0  0  0
   13.4441   12.7010  -21.4611 C   0  0  0  0  0  0  0  0  0  0  0  0
   12.1395   13.2223  -22.0566 C   0  0  0  0  0  0  0  0  0  0  0  0
   11.6790   14.5197  -21.3768 C   0  0  0  0  0  0  0  0  0  0  0  0
   11.6125   14.3435  -19.8515 C   0  0  0  0  0  0  0  0  0  0  0  0
   12.5530   15.7082  -21.7827 C   0  0  0  0  0  0  0  0  0  0  0  0
    8.2665   12.6929  -14.0445 N   0  0  0  0  0  0  0  0  0  0  0  0
    8.9204   12.9692  -15.2141 C   0  0  0  0  0  0  0  0  0  0  0  0
    8.3966   12.6880  -16.2863 O   0  0  0  0  0  0  0  0  0  0  0  0
    7.3598   12.2511  -14.1246 H   0  0  0  0  0  0  0  0  0  0  0  0
    8.6014   12.9102  -13.1203 H   0  0  0  0  0  0  0  0  0  0  0  0
  3  5  1  0  0  0
  4  2  2  0  0  0
  5  6  2  0  0  0
  6  8  1  0  0  0
  7 15  1  0  0  0
  7  1  2  0  0  0
 16 15  1  0  0  0
 16 17  1  0  0  0
 17 18  1  0  0  0
 18 19  1  0  0  0
 19 20  1  0  0  0
 19 21  1  0  0  0
 20 15  1  0  0  0
  9  3  1  0  0  0
  9 10  2  0  0  0
 11 12  2  0  0  0
 12 23  1  0  0  0
 13  8  2  0  0  0
 23 22  1  0  0  0
  4  1  1  0  0  0
  5  2  1  0  0  0
  6  7  1  0  0  0
  8  9  1  0  0  0
 10 11  1  0  0  0
 12 13  1  0  0  0
 23 24  2  0  0  0
  3 14  1  0  0  0
 22 25  1  0  0  0
 22 26  1  0  0  0
M  END
> <minimizedAffinity>
-8.41336

$$$$
CHEMBL3719102


 26 29  0  0  0  0  0  0  0  0999 V2000
    9.9901   13.3980  -18.0271 N   0  0  0  0  0  0  0  0  0  0  0  0
    8.3375   12.5391  -16.4880 N   0  0  0  0  0  0  0  0  0  0  0  0
    8.7993   13.0767  -14.2060 N   0  0  0  0  0  0  0  0  0  0  0  0
    8.8749   12.7166  -17.7040 C   0  0  0  0  0  0  0  0  0  0  0  0
    9.0920   13.1105  -15.5397 C   0  0  0  0  0  0  0  0  0  0  0  0
   10.2671   13.8246  -15.7166 C   0  0  0  0  0  0  0  0  0  0  0  0
   10.7022   14.0209  -17.0493 C   0  0  0  0  0  0  0  0  0  0  0  0
   10.7407   14.1468  -14.3994 C   0  0  0  0  0  0  0  0  0  0  0  0
    9.7819   13.7106  -13.4824 C   0  0  0  0  0  0  0  0  0  0  0  0
    9.9031   13.9142  -12.1037 C   0  0  0  0  0  0  0  0  0  0  0  0
   11.0414   14.5903  -11.6465 C   0  0  0  0  0  0  0  0  0  0  0  0
   12.0424   15.0174  -12.5260 C   0  0  0  0  0  0  0  0  0  0  0  0
   11.9085   14.7636  -13.8974 C   0  0  0  0  0  0  0  0  0  0  0  0
    7.9814   12.6267  -13.8241 H   0  0  0  0  0  0  0  0  0  0  0  0
   11.7963   14.7884  -17.4081 N   0  0  0  0  0  0  0  0  0  0  0  0
   12.2636   14.8001  -18.7885 C   0  0  0  0  0  0  0  0  0  0  0  0
   13.6295   14.1328  -18.9125 C   0  0  0  0  0  0  0  0  0  0  0  0
   14.6219   14.7237  -17.9153 C   0  0  0  0  0  0  0  0  0  0  0  0
   14.0979   14.6475  -16.4740 C   0  0  0  0  0  0  0  0  0  0  0  0
   12.6981   15.2731  -16.3678 C   0  0  0  0  0  0  0  0  0  0  0  0
   14.1317   13.2147  -15.9383 C   0  0  0  0  0  0  0  0  0  0  0  0
   14.2088   16.1498  -12.8121 N   0  0  0  0  0  0  0  0  0  0  0  0
   13.2186   15.7409  -11.9611 C   0  0  0  0  0  0  0  0  0  0  0  0
   13.3014   15.9923  -10.7641 O   0  0  0  0  0  0  0  0  0  0  0  0
   14.9862   16.6480  -12.3982 H   0  0  0  0  0  0  0  0  0  0  0  0
   14.2169   16.0151  -13.8098 H   0  0  0  0  0  0  0  0  0  0  0  0
  3  5  1  0  0  0
  4  2  2  0  0  0
  5  6  2  0  0  0
  6  8  1  0  0  0
  7 15  1  0  0  0
  7  1  2  0  0  0
 16 15  1  0  0  0
 16 17  1  0  0  0
 17 18  1  0  0  0
 18 19  1  0  0  0
 19 20  1  0  0  0
 19 21  1  0  0  0
 20 15  1  0  0  0
  9  3  1  0  0  0
  9 10  2  0  0  0
 11 12  2  0  0  0
 12 23  1  0  0  0
 13  8  2  0  0  0
 23 22  1  0  0  0
  4  1  1  0  0  0
  5  2  1  0  0  0
  6  7  1  0  0  0
  8  9  1  0  0  0
 10 11  1  0  0  0
 12 13  1  0  0  0
 23 24  2  0  0  0
  3 14  1  0  0  0
 22 25  1  0  0  0
 22 26  1  0  0  0
M  END
> <minimizedAffinity>
-8.34177

$$$$
CHEMBL3719102


 26 29  0  0  0  0  0  0  0  0999 V2000
   12.6171   13.8351  -18.7311 N   0  0  0  0  0  0  0  0  0  0  0  0
   14.5673   15.2571  -18.8411 N   0  0  0  0  0  0  0  0  0  0  0  0
   15.2137   16.1432  -16.7181 N   0  0  0  0  0  0  0  0  0  0  0  0
   13.6144   14.4752  -19.3699 C   0  0  0  0  0  0  0  0  0  0  0  0
   14.4018   15.3907  -17.5183 C   0  0  0  0  0  0  0  0  0  0  0  0
   13.4187   14.8116  -16.7309 C   0  0  0  0  0  0  0  0  0  0  0  0
   12.5113   13.9391  -17.3787 C   0  0  0  0  0  0  0  0  0  0  0  0
   13.6101   15.3321  -15.4059 C   0  0  0  0  0  0  0  0  0  0  0  0
   14.7634   16.1197  -15.4192 C   0  0  0  0  0  0  0  0  0  0  0  0
   15.2712   16.7402  -14.2729 C   0  0  0  0  0  0  0  0  0  0  0  0
   14.5790   16.5461  -13.0707 C   0  0  0  0  0  0  0  0  0  0  0  0
   13.4022   15.7908  -13.0167 C   0  0  0  0  0  0  0  0  0  0  0  0
   12.8992   15.2146  -14.1906 C   0  0  0  0  0  0  0  0  0  0  0  0
   16.0152   16.6535  -17.0565 H   0  0  0  0  0  0  0  0  0  0  0  0
   11.5342   13.2062  -16.7285 N   0  0  0  0  0  0  0  0  0  0  0  0
   11.3538   11.7921  -17.0318 C   0  0  0  0  0  0  0  0  0  0  0  0
   10.0219   11.5454  -17.7328 C   0  0  0  0  0  0  0  0  0  0  0  0
    8.8672   12.1657  -16.9518 C   0  0  0  0  0  0  0  0  0  0  0  0
    9.0888   13.6636  -16.6969 C   0  0  0  0  0  0  0  0  0  0  0  0
   10.4564   13.9095  -16.0400 C   0  0  0  0  0  0  0  0  0  0  0  0
    8.9069   14.4846  -17.9752 C   0  0  0  0  0  0  0  0  0  0  0  0
   11.5078   15.0092  -11.6538 N   0  0  0  0  0  0  0  0  0  0  0  0
   12.7303   15.6220  -11.6953 C   0  0  0  0  0  0  0  0  0  0  0  0
   13.2591   15.9982  -10.6553 O   0  0  0  0  0  0  0  0  0  0  0  0
   11.0854   14.8999  -10.7409 H   0  0  0  0  0  0  0  0  0  0  0  0
   11.0085   14.6429  -12.4476 H   0  0  0  0  0  0  0  0  0  0  0  0
  3  5  1  0  0  0
  4  2  2  0  0  0
  5  6  2  0  0  0
  6  8  1  0  0  0
  7 15  1  0  0  0
  7  1  2  0  0  0
 16 15  1  0  0  0
 16 17  1  0  0  0
 17 18  1  0  0  0
 18 19  1  0  0  0
 19 20  1  0  0  0
 19 21  1  0  0  0
 20 15  1  0  0  0
  9  3  1  0  0  0
  9 10  2  0  0  0
 11 12  2  0  0  0
 12 23  1  0  0  0
 13  8  2  0  0  0
 23 22  1  0  0  0
  4  1  1  0  0  0
  5  2  1  0  0  0
  6  7  1  0  0  0
  8  9  1  0  0  0
 10 11  1  0  0  0
 12 13  1  0  0  0
 23 24  2  0  0  0
  3 14  1  0  0  0
 22 25  1  0  0  0
 22 26  1  0  0  0
M  END
> <minimizedAffinity>
-8.33401

$$$$
CHEMBL3719102


 26 29  0  0  0  0  0  0  0  0999 V2000
   14.7494   14.9226  -18.1365 N   0  0  0  0  0  0  0  0  0  0  0  0
   15.9348   16.5200  -16.7652 N   0  0  0  0  0  0  0  0  0  0  0  0
   15.0695   16.6873  -14.5440 N   0  0  0  0  0  0  0  0  0  0  0  0
   15.6876   15.8604  -17.9065 C   0  0  0  0  0  0  0  0  0  0  0  0
   15.0683   16.1660  -15.8066 C   0  0  0  0  0  0  0  0  0  0  0  0
   14.0450   15.2352  -15.8997 C   0  0  0  0  0  0  0  0  0  0  0  0
   13.9237   14.5381  -17.1258 C   0  0  0  0  0  0  0  0  0  0  0  0
   13.3458   15.2837  -14.6460 C   0  0  0  0  0  0  0  0  0  0  0  0
   14.0356   16.1607  -13.8061 C   0  0  0  0  0  0  0  0  0  0  0  0
   13.6523   16.4024  -12.4826 C   0  0  0  0  0  0  0  0  0  0  0  0
   12.5277   15.7214  -11.9993 C   0  0  0  0  0  0  0  0  0  0  0  0
   11.7881   14.8575  -12.8146 C   0  0  0  0  0  0  0  0  0  0  0  0
   12.1765   14.6671  -14.1472 C   0  0  0  0  0  0  0  0  0  0  0  0
   15.7328   17.3763  -14.2241 H   0  0  0  0  0  0  0  0  0  0  0  0
   13.0233   13.5126  -17.3547 N   0  0  0  0  0  0  0  0  0  0  0  0
   12.8886   12.9381  -18.6874 C   0  0  0  0  0  0  0  0  0  0  0  0
   11.5281   13.2668  -19.2932 C   0  0  0  0  0  0  0  0  0  0  0  0
   10.3975   12.8943  -18.3385 C   0  0  0  0  0  0  0  0  0  0  0  0
   10.5666   13.5593  -16.9650 C   0  0  0  0  0  0  0  0  0  0  0  0
   11.9599   13.2689  -16.3851 C   0  0  0  0  0  0  0  0  0  0  0  0
   10.2680   15.0588  -17.0256 C   0  0  0  0  0  0  0  0  0  0  0  0
    9.7690   13.4701  -13.0506 N   0  0  0  0  0  0  0  0  0  0  0  0
   10.6096   14.1612  -12.2212 C   0  0  0  0  0  0  0  0  0  0  0  0
   10.3964   14.1784  -11.0141 O   0  0  0  0  0  0  0  0  0  0  0  0
    8.9866   12.9995  -12.6146 H   0  0  0  0  0  0  0  0  0  0  0  0
    9.8763   13.3751  -14.0471 H   0  0  0  0  0  0  0  0  0  0  0  0
  3  5  1  0  0  0
  4  2  2  0  0  0
  5  6  2  0  0  0
  6  8  1  0  0  0
  7 15  1  0  0  0
  7  1  2  0  0  0
 16 15  1  0  0  0
 16 17  1  0  0  0
 17 18  1  0  0  0
 18 19  1  0  0  0
 19 20  1  0  0  0
 19 21  1  0  0  0
 20 15  1  0  0  0
  9  3  1  0  0  0
  9 10  2  0  0  0
 11 12  2  0  0  0
 12 23  1  0  0  0
 13  8  2  0  0  0
 23 22  1  0  0  0
  4  1  1  0  0  0
  5  2  1  0  0  0
  6  7  1  0  0  0
  8  9  1  0  0  0
 10 11  1  0  0  0
 12 13  1  0  0  0
 23 24  2  0  0  0
  3 14  1  0  0  0
 22 25  1  0  0  0
 22 26  1  0  0  0
M  END
> <minimizedAffinity>
-8.28136

$$$$
CHEMBL3715588


 25 28  0  0  0  0  0  0  0  0999 V2000
   13.7757   14.6148  -18.1186 N   0  0  0  0  0  0  0  0  0  0  0  0
   15.3863   15.9406  -16.8970 N   0  0  0  0  0  0  0  0  0  0  0  0
   14.8018   16.2559  -14.5993 N   0  0  0  0  0  0  0  0  0  0  0  0
   14.9169   15.3185  -17.9893 C   0  0  0  0  0  0  0  0  0  0  0  0
   14.5710   15.7561  -15.8496 C   0  0  0  0  0  0  0  0  0  0  0  0
   13.3781   15.0511  -15.8282 C   0  0  0  0  0  0  0  0  0  0  0  0
   12.9420   14.4916  -17.0502 C   0  0  0  0  0  0  0  0  0  0  0  0
   12.9223   15.0716  -14.4696 C   0  0  0  0  0  0  0  0  0  0  0  0
   13.8072   15.8623  -13.7342 C   0  0  0  0  0  0  0  0  0  0  0  0
   13.6326   16.1258  -12.3716 C   0  0  0  0  0  0  0  0  0  0  0  0
   12.5117   15.5669  -11.7429 C   0  0  0  0  0  0  0  0  0  0  0  0
   11.6139   14.7477  -12.4369 C   0  0  0  0  0  0  0  0  0  0  0  0
   11.8389   14.4728  -13.7913 C   0  0  0  0  0  0  0  0  0  0  0  0
   15.6062   16.8154  -14.3600 H   0  0  0  0  0  0  0  0  0  0  0  0
   11.7332   13.8275  -17.2116 N   0  0  0  0  0  0  0  0  0  0  0  0
   11.6694   12.3986  -16.9155 C   0  0  0  0  0  0  0  0  0  0  0  0
   10.6835   12.1077  -15.7866 C   0  0  0  0  0  0  0  0  0  0  0  0
    9.3097   12.7510  -15.9988 C   0  0  0  0  0  0  0  0  0  0  0  0
    9.2868   13.7377  -17.1636 C   0  0  0  0  0  0  0  0  0  0  0  0
   10.5206   14.6341  -17.1212 C   0  0  0  0  0  0  0  0  0  0  0  0
    9.4654   13.5486  -12.4091 N   0  0  0  0  0  0  0  0  0  0  0  0
   10.4387   14.1986  -11.7005 C   0  0  0  0  0  0  0  0  0  0  0  0
   10.3208   14.3377  -10.4880 O   0  0  0  0  0  0  0  0  0  0  0  0
    8.6764   13.1974  -11.8821 H   0  0  0  0  0  0  0  0  0  0  0  0
    9.4605   13.4104  -13.4066 H   0  0  0  0  0  0  0  0  0  0  0  0
  3  5  1  0  0  0
  4  2  2  0  0  0
  5  6  2  0  0  0
  6  8  1  0  0  0
  7 15  1  0  0  0
  7  1  2  0  0  0
 16 15  1  0  0  0
 16 17  1  0  0  0
 17 18  1  0  0  0
 18 19  1  0  0  0
 19 20  1  0  0  0
 20 15  1  0  0  0
  9  3  1  0  0  0
  9 10  2  0  0  0
 11 12  2  0  0  0
 12 22  1  0  0  0
 13  8  2  0  0  0
 22 21  1  0  0  0
  4  1  1  0  0  0
  5  2  1  0  0  0
  6  7  1  0  0  0
  8  9  1  0  0  0
 10 11  1  0  0  0
 12 13  1  0  0  0
 22 23  2  0  0  0
  3 14  1  0  0  0
 21 24  1  0  0  0
 21 25  1  0  0  0
M  END
> <minimizedAffinity>
-9.35185

$$$$
CHEMBL3715588


 25 28  0  0  0  0  0  0  0  0999 V2000
    9.5782   13.6382  -13.8338 N   0  0  0  0  0  0  0  0  0  0  0  0
   10.4471   14.4994  -11.7488 N   0  0  0  0  0  0  0  0  0  0  0  0
   12.5558   15.6025  -11.9879 N   0  0  0  0  0  0  0  0  0  0  0  0
    9.5316   13.8803  -12.5096 C   0  0  0  0  0  0  0  0  0  0  0  0
   11.4817   14.9223  -12.4880 C   0  0  0  0  0  0  0  0  0  0  0  0
   11.6613   14.7583  -13.8524 C   0  0  0  0  0  0  0  0  0  0  0  0
   10.6680   14.0324  -14.5471 C   0  0  0  0  0  0  0  0  0  0  0  0
   12.8714   15.4502  -14.1855 C   0  0  0  0  0  0  0  0  0  0  0  0
   13.4280   15.9322  -12.9993 C   0  0  0  0  0  0  0  0  0  0  0  0
   14.6420   16.6261  -12.9609 C   0  0  0  0  0  0  0  0  0  0  0  0
   15.3112   16.8272  -14.1757 C   0  0  0  0  0  0  0  0  0  0  0  0
   14.7760   16.3830  -15.3902 C   0  0  0  0  0  0  0  0  0  0  0  0
   13.5399   15.7251  -15.3979 C   0  0  0  0  0  0  0  0  0  0  0  0
   12.6644   15.8382  -11.0133 H   0  0  0  0  0  0  0  0  0  0  0  0
   10.7413   13.7140  -15.8967 N   0  0  0  0  0  0  0  0  0  0  0  0
   10.8072   12.3077  -16.2862 C   0  0  0  0  0  0  0  0  0  0  0  0
    9.6113   11.9128  -17.1493 C   0  0  0  0  0  0  0  0  0  0  0  0
    9.3706   12.8635  -18.3259 C   0  0  0  0  0  0  0  0  0  0  0  0
   10.2203   14.1298  -18.2527 C   0  0  0  0  0  0  0  0  0  0  0  0
   10.2063   14.6945  -16.8355 C   0  0  0  0  0  0  0  0  0  0  0  0
   15.9544   17.9020  -16.9258 N   0  0  0  0  0  0  0  0  0  0  0  0
   15.5533   16.6256  -16.6398 C   0  0  0  0  0  0  0  0  0  0  0  0
   15.8169   15.7146  -17.4170 O   0  0  0  0  0  0  0  0  0  0  0  0
   16.4704   18.0352  -17.7859 H   0  0  0  0  0  0  0  0  0  0  0  0
   15.7618   18.7161  -16.3651 H   0  0  0  0  0  0  0  0  0  0  0  0
  3  5  1  0  0  0
  4  2  2  0  0  0
  5  6  2  0  0  0
  6  8  1  0  0  0
  7 15  1  0  0  0
  7  1  2  0  0  0
 16 15  1  0  0  0
 16 17  1  0  0  0
 17 18  1  0  0  0
 18 19  1  0  0  0
 19 20  1  0  0  0
 20 15  1  0  0  0
  9  3  1  0  0  0
  9 10  2  0  0  0
 11 12  2  0  0  0
 12 22  1  0  0  0
 13  8  2  0  0  0
 22 21  1  0  0  0
  4  1  1  0  0  0
  5  2  1  0  0  0
  6  7  1  0  0  0
  8  9  1  0  0  0
 10 11  1  0  0  0
 12 13  1  0  0  0
 22 23  2  0  0  0
  3 14  1  0  0  0
 21 24  1  0  0  0
 21 25  1  0  0  0
M  END
> <minimizedAffinity>
-9.31007

$$$$
CHEMBL3715588


 25 28  0  0  0  0  0  0  0  0999 V2000
   12.3570   13.6500  -19.2282 N   0  0  0  0  0  0  0  0  0  0  0  0
   14.4530   14.8516  -19.1445 N   0  0  0  0  0  0  0  0  0  0  0  0
   14.9416   15.7491  -16.9820 N   0  0  0  0  0  0  0  0  0  0  0  0
   13.5045   14.1224  -19.7520 C   0  0  0  0  0  0  0  0  0  0  0  0
   14.1514   15.0562  -17.8550 C   0  0  0  0  0  0  0  0  0  0  0  0
   13.0218   14.6243  -17.1782 C   0  0  0  0  0  0  0  0  0  0  0  0
   12.0538   13.9213  -17.9297 C   0  0  0  0  0  0  0  0  0  0  0  0
   13.1960   15.0182  -15.8112 C   0  0  0  0  0  0  0  0  0  0  0  0
   14.3810   15.7515  -15.7258 C   0  0  0  0  0  0  0  0  0  0  0  0
   14.8325   16.3225  -14.5313 C   0  0  0  0  0  0  0  0  0  0  0  0
   14.0416   16.1426  -13.3885 C   0  0  0  0  0  0  0  0  0  0  0  0
   12.8601   15.3932  -13.4247 C   0  0  0  0  0  0  0  0  0  0  0  0
   12.4563   14.8029  -14.6285 C   0  0  0  0  0  0  0  0  0  0  0  0
   15.8198   16.1737  -17.2383 H   0  0  0  0  0  0  0  0  0  0  0  0
   10.8355   13.4937  -17.4186 N   0  0  0  0  0  0  0  0  0  0  0  0
    9.8148   14.4901  -17.1038 C   0  0  0  0  0  0  0  0  0  0  0  0
    8.5531   14.2765  -17.9365 C   0  0  0  0  0  0  0  0  0  0  0  0
    8.0352   12.8355  -17.8964 C   0  0  0  0  0  0  0  0  0  0  0  0
    9.0134   11.8686  -17.2338 C   0  0  0  0  0  0  0  0  0  0  0  0
   10.4318   12.1271  -17.7327 C   0  0  0  0  0  0  0  0  0  0  0  0
   12.7182   15.3479  -10.9687 N   0  0  0  0  0  0  0  0  0  0  0  0
   12.0674   15.2561  -12.1687 C   0  0  0  0  0  0  0  0  0  0  0  0
   10.8602   15.0429  -12.1935 O   0  0  0  0  0  0  0  0  0  0  0  0
   12.1543   15.2398  -10.1356 H   0  0  0  0  0  0  0  0  0  0  0  0
   13.7075   15.4926  -10.8483 H   0  0  0  0  0  0  0  0  0  0  0  0
  3  5  1  0  0  0
  4  2  2  0  0  0
  5  6  2  0  0  0
  6  8  1  0  0  0
  7 15  1  0  0  0
  7  1  2  0  0  0
 16 15  1  0  0  0
 16 17  1  0  0  0
 17 18  1  0  0  0
 18 19  1  0  0  0
 19 20  1  0  0  0
 20 15  1  0  0  0
  9  3  1  0  0  0
  9 10  2  0  0  0
 11 12  2  0  0  0
 12 22  1  0  0  0
 13  8  2  0  0  0
 22 21  1  0  0  0
  4  1  1  0  0  0
  5  2  1  0  0  0
  6  7  1  0  0  0
  8  9  1  0  0  0
 10 11  1  0  0  0
 12 13  1  0  0  0
 22 23  2  0  0  0
  3 14  1  0  0  0
 21 24  1  0  0  0
 21 25  1  0  0  0
M  END
> <minimizedAffinity>
-8.65750

$$$$
CHEMBL3715588


 25 28  0  0  0  0  0  0  0  0999 V2000
    9.1109   12.9608  -15.1365 N   0  0  0  0  0  0  0  0  0  0  0  0
    8.8223   13.4065  -12.7782 N   0  0  0  0  0  0  0  0  0  0  0  0
   10.6494   14.6118  -11.8141 N   0  0  0  0  0  0  0  0  0  0  0  0
    8.4388   12.9238  -13.9699 C   0  0  0  0  0  0  0  0  0  0  0  0
   10.0157   14.0100  -12.8641 C   0  0  0  0  0  0  0  0  0  0  0  0
   10.8132   14.1366  -13.9904 C   0  0  0  0  0  0  0  0  0  0  0  0
   10.3448   13.5329  -15.1788 C   0  0  0  0  0  0  0  0  0  0  0  0
   11.9430   14.9261  -13.5974 C   0  0  0  0  0  0  0  0  0  0  0  0
   11.8347   15.1742  -12.2277 C   0  0  0  0  0  0  0  0  0  0  0  0
   12.7993   15.8895  -11.5103 C   0  0  0  0  0  0  0  0  0  0  0  0
   13.9142   16.3603  -12.2168 C   0  0  0  0  0  0  0  0  0  0  0  0
   14.0492   16.1559  -13.5948 C   0  0  0  0  0  0  0  0  0  0  0  0
   13.0466   15.4687  -14.2900 C   0  0  0  0  0  0  0  0  0  0  0  0
   10.2734   14.6461  -10.8788 H   0  0  0  0  0  0  0  0  0  0  0  0
   11.0618   13.5016  -16.3676 N   0  0  0  0  0  0  0  0  0  0  0  0
   11.0697   14.6899  -17.2171 C   0  0  0  0  0  0  0  0  0  0  0  0
   12.4831   15.2404  -17.3908 C   0  0  0  0  0  0  0  0  0  0  0  0
   13.5013   14.1776  -17.8151 C   0  0  0  0  0  0  0  0  0  0  0  0
   12.9459   12.7573  -17.7429 C   0  0  0  0  0  0  0  0  0  0  0  0
   12.1721   12.5578  -16.4433 C   0  0  0  0  0  0  0  0  0  0  0  0
   16.2855   17.1784  -13.5052 N   0  0  0  0  0  0  0  0  0  0  0  0
   15.2700   16.6785  -14.2739 C   0  0  0  0  0  0  0  0  0  0  0  0
   15.3684   16.6879  -15.4961 O   0  0  0  0  0  0  0  0  0  0  0  0
   17.0951   17.5350  -13.9963 H   0  0  0  0  0  0  0  0  0  0  0  0
   16.2842   17.2385  -12.4999 H   0  0  0  0  0  0  0  0  0  0  0  0
  3  5  1  0  0  0
  4  2  2  0  0  0
  5  6  2  0  0  0
  6  8  1  0  0  0
  7 15  1  0  0  0
  7  1  2  0  0  0
 16 15  1  0  0  0
 16 17  1  0  0  0
 17 18  1  0  0  0
 18 19  1  0  0  0
 19 20  1  0  0  0
 20 15  1  0  0  0
  9  3  1  0  0  0
  9 10  2  0  0  0
 11 12  2  0  0  0
 12 22  1  0  0  0
 13  8  2  0  0  0
 22 21  1  0  0  0
  4  1  1  0  0  0
  5  2  1  0  0  0
  6  7  1  0  0  0
  8  9  1  0  0  0
 10 11  1  0  0  0
 12 13  1  0  0  0
 22 23  2  0  0  0
  3 14  1  0  0  0
 21 24  1  0  0  0
 21 25  1  0  0  0
M  END
> <minimizedAffinity>
-8.39451

$$$$
CHEMBL3715588


 25 28  0  0  0  0  0  0  0  0999 V2000
   10.4882   12.8092  -17.9754 N   0  0  0  0  0  0  0  0  0  0  0  0
    8.5567   12.3955  -16.5818 N   0  0  0  0  0  0  0  0  0  0  0  0
    8.8652   13.0826  -14.3117 N   0  0  0  0  0  0  0  0  0  0  0  0
    9.2291   12.3911  -17.7429 C   0  0  0  0  0  0  0  0  0  0  0  0
    9.2955   12.9290  -15.5992 C   0  0  0  0  0  0  0  0  0  0  0  0
   10.5920   13.4098  -15.6901 C   0  0  0  0  0  0  0  0  0  0  0  0
   11.2317   13.2957  -16.9447 C   0  0  0  0  0  0  0  0  0  0  0  0
   10.9132   13.9486  -14.4014 C   0  0  0  0  0  0  0  0  0  0  0  0
    9.8346   13.6954  -13.5519 C   0  0  0  0  0  0  0  0  0  0  0  0
    9.8350   14.0572  -12.2007 C   0  0  0  0  0  0  0  0  0  0  0  0
   10.9798   14.6929  -11.7014 C   0  0  0  0  0  0  0  0  0  0  0  0
   12.0725   14.9884  -12.5244 C   0  0  0  0  0  0  0  0  0  0  0  0
   12.0242   14.6468  -13.8815 C   0  0  0  0  0  0  0  0  0  0  0  0
    7.9527   12.7989  -13.9890 H   0  0  0  0  0  0  0  0  0  0  0  0
   12.5524   13.6557  -17.1775 N   0  0  0  0  0  0  0  0  0  0  0  0
   13.2709   13.0236  -18.2812 C   0  0  0  0  0  0  0  0  0  0  0  0
   13.7185   14.0531  -19.3159 C   0  0  0  0  0  0  0  0  0  0  0  0
   14.4610   15.2456  -18.7051 C   0  0  0  0  0  0  0  0  0  0  0  0
   14.3888   15.2753  -17.1803 C   0  0  0  0  0  0  0  0  0  0  0  0
   12.9681   14.9749  -16.7125 C   0  0  0  0  0  0  0  0  0  0  0  0
   14.2439   16.1251  -12.7429 N   0  0  0  0  0  0  0  0  0  0  0  0
   13.2590   15.6573  -11.9164 C   0  0  0  0  0  0  0  0  0  0  0  0
   13.3755   15.7740  -10.7014 O   0  0  0  0  0  0  0  0  0  0  0  0
   15.0402   16.5640  -12.2992 H   0  0  0  0  0  0  0  0  0  0  0  0
   14.2503   16.0504  -13.7472 H   0  0  0  0  0  0  0  0  0  0  0  0
  3  5  1  0  0  0
  4  2  2  0  0  0
  5  6  2  0  0  0
  6  8  1  0  0  0
  7 15  1  0  0  0
  7  1  2  0  0  0
 16 15  1  0  0  0
 16 17  1  0  0  0
 17 18  1  0  0  0
 18 19  1  0  0  0
 19 20  1  0  0  0
 20 15  1  0  0  0
  9  3  1  0  0  0
  9 10  2  0  0  0
 11 12  2  0  0  0
 12 22  1  0  0  0
 13  8  2  0  0  0
 22 21  1  0  0  0
  4  1  1  0  0  0
  5  2  1  0  0  0
  6  7  1  0  0  0
  8  9  1  0  0  0
 10 11  1  0  0  0
 12 13  1  0  0  0
 22 23  2  0  0  0
  3 14  1  0  0  0
 21 24  1  0  0  0
 21 25  1  0  0  0
M  END
> <minimizedAffinity>
-8.25907

$$$$
CHEMBL3715588


 25 28  0  0  0  0  0  0  0  0999 V2000
    9.6917   12.9403  -18.2701 N   0  0  0  0  0  0  0  0  0  0  0  0
    8.6583   12.6773  -16.1006 N   0  0  0  0  0  0  0  0  0  0  0  0
    9.9290   13.6526  -14.3245 N   0  0  0  0  0  0  0  0  0  0  0  0
    8.7167   12.5356  -17.4336 C   0  0  0  0  0  0  0  0  0  0  0  0
    9.7260   13.3430  -15.6395 C   0  0  0  0  0  0  0  0  0  0  0  0
   10.7948   13.8286  -16.3759 C   0  0  0  0  0  0  0  0  0  0  0  0
   10.7892   13.5657  -17.7641 C   0  0  0  0  0  0  0  0  0  0  0  0
   11.6344   14.5320  -15.4515 C   0  0  0  0  0  0  0  0  0  0  0  0
   11.0918   14.3721  -14.1751 C   0  0  0  0  0  0  0  0  0  0  0  0
   11.6898   14.9030  -13.0273 C   0  0  0  0  0  0  0  0  0  0  0  0
   12.8857   15.6150  -13.1909 C   0  0  0  0  0  0  0  0  0  0  0  0
   13.4499   15.8204  -14.4552 C   0  0  0  0  0  0  0  0  0  0  0  0
   12.8055   15.3081  -15.5878 C   0  0  0  0  0  0  0  0  0  0  0  0
    9.2922   13.3979  -13.5849 H   0  0  0  0  0  0  0  0  0  0  0  0
   11.8228   13.9139  -18.6236 N   0  0  0  0  0  0  0  0  0  0  0  0
   13.0540   13.1282  -18.5994 C   0  0  0  0  0  0  0  0  0  0  0  0
   13.3182   12.4659  -19.9493 C   0  0  0  0  0  0  0  0  0  0  0  0
   13.2354   13.4384  -21.1300 C   0  0  0  0  0  0  0  0  0  0  0  0
   12.6748   14.8038  -20.7395 C   0  0  0  0  0  0  0  0  0  0  0  0
   11.4561   14.6364  -19.8371 C   0  0  0  0  0  0  0  0  0  0  0  0
   15.4509   16.7914  -13.4027 N   0  0  0  0  0  0  0  0  0  0  0  0
   14.7305   16.5798  -14.5464 C   0  0  0  0  0  0  0  0  0  0  0  0
   15.1325   17.0314  -15.6132 O   0  0  0  0  0  0  0  0  0  0  0  0
   16.3091   17.3190  -13.4963 H   0  0  0  0  0  0  0  0  0  0  0  0
   15.1884   16.4850  -12.4799 H   0  0  0  0  0  0  0  0  0  0  0  0
  3  5  1  0  0  0
  4  2  2  0  0  0
  5  6  2  0  0  0
  6  8  1  0  0  0
  7 15  1  0  0  0
  7  1  2  0  0  0
 16 15  1  0  0  0
 16 17  1  0  0  0
 17 18  1  0  0  0
 18 19  1  0  0  0
 19 20  1  0  0  0
 20 15  1  0  0  0
  9  3  1  0  0  0
  9 10  2  0  0  0
 11 12  2  0  0  0
 12 22  1  0  0  0
 13  8  2  0  0  0
 22 21  1  0  0  0
  4  1  1  0  0  0
  5  2  1  0  0  0
  6  7  1  0  0  0
  8  9  1  0  0  0
 10 11  1  0  0  0
 12 13  1  0  0  0
 22 23  2  0  0  0
  3 14  1  0  0  0
 21 24  1  0  0  0
 21 25  1  0  0  0
M  END
> <minimizedAffinity>
-8.25698

$$$$
CHEMBL3715588


 25 28  0  0  0  0  0  0  0  0999 V2000
   12.3469   13.6212  -15.5978 N   0  0  0  0  0  0  0  0  0  0  0  0
   13.2073   13.1723  -17.8118 N   0  0  0  0  0  0  0  0  0  0  0  0
   14.9708   14.6531  -18.4581 N   0  0  0  0  0  0  0  0  0  0  0  0
   12.4082   12.9414  -16.7590 C   0  0  0  0  0  0  0  0  0  0  0  0
   14.0321   14.2014  -17.5743 C   0  0  0  0  0  0  0  0  0  0  0  0
   14.0928   14.9820  -16.4308 C   0  0  0  0  0  0  0  0  0  0  0  0
   13.1603   14.6956  -15.4088 C   0  0  0  0  0  0  0  0  0  0  0  0
   15.1821   15.8935  -16.6227 C   0  0  0  0  0  0  0  0  0  0  0  0
   15.6850   15.6931  -17.9096 C   0  0  0  0  0  0  0  0  0  0  0  0
   16.7354   16.4511  -18.4375 C   0  0  0  0  0  0  0  0  0  0  0  0
   17.2843   17.4513  -17.6239 C   0  0  0  0  0  0  0  0  0  0  0  0
   16.8271   17.6684  -16.3190 C   0  0  0  0  0  0  0  0  0  0  0  0
   15.7996   16.8663  -15.8075 C   0  0  0  0  0  0  0  0  0  0  0  0
   15.1176   14.2524  -19.3721 H   0  0  0  0  0  0  0  0  0  0  0  0
   13.0394   15.4351  -14.2397 N   0  0  0  0  0  0  0  0  0  0  0  0
   11.7157   15.6007  -13.6446 C   0  0  0  0  0  0  0  0  0  0  0  0
   11.6570   15.0003  -12.2421 C   0  0  0  0  0  0  0  0  0  0  0  0
   12.7994   15.4653  -11.3337 C   0  0  0  0  0  0  0  0  0  0  0  0
   13.8827   16.2354  -12.0848 C   0  0  0  0  0  0  0  0  0  0  0  0
   14.2239   15.5277  -13.3926 C   0  0  0  0  0  0  0  0  0  0  0  0
   17.5472   18.6085  -14.1621 N   0  0  0  0  0  0  0  0  0  0  0  0
   17.4551   18.7594  -15.5188 C   0  0  0  0  0  0  0  0  0  0  0  0
   17.8653   19.7867  -16.0479 O   0  0  0  0  0  0  0  0  0  0  0  0
   17.9683   19.3707  -13.6469 H   0  0  0  0  0  0  0  0  0  0  0  0
   17.2143   17.8164  -13.6368 H   0  0  0  0  0  0  0  0  0  0  0  0
  3  5  1  0  0  0
  4  2  2  0  0  0
  5  6  2  0  0  0
  6  8  1  0  0  0
  7 15  1  0  0  0
  7  1  2  0  0  0
 16 15  1  0  0  0
 16 17  1  0  0  0
 17 18  1  0  0  0
 18 19  1  0  0  0
 19 20  1  0  0  0
 20 15  1  0  0  0
  9  3  1  0  0  0
  9 10  2  0  0  0
 11 12  2  0  0  0
 12 22  1  0  0  0
 13  8  2  0  0  0
 22 21  1  0  0  0
  4  1  1  0  0  0
  5  2  1  0  0  0
  6  7  1  0  0  0
  8  9  1  0  0  0
 10 11  1  0  0  0
 12 13  1  0  0  0
 22 23  2  0  0  0
  3 14  1  0  0  0
 21 24  1  0  0  0
 21 25  1  0  0  0
M  END
> <minimizedAffinity>
-8.09456

$$$$
CHEMBL3715588


 25 28  0  0  0  0  0  0  0  0999 V2000
   11.1898   14.4178  -12.7627 N   0  0  0  0  0  0  0  0  0  0  0  0
   12.6509   15.7192  -11.3430 N   0  0  0  0  0  0  0  0  0  0  0  0
   14.5475   16.6061  -12.4994 N   0  0  0  0  0  0  0  0  0  0  0  0
   11.5579   14.9837  -11.5971 C   0  0  0  0  0  0  0  0  0  0  0  0
   13.3879   15.8854  -12.4498 C   0  0  0  0  0  0  0  0  0  0  0  0
   13.1313   15.3776  -13.7134 C   0  0  0  0  0  0  0  0  0  0  0  0
   11.9880   14.5596  -13.8556 C   0  0  0  0  0  0  0  0  0  0  0  0
   14.1563   15.8948  -14.5713 C   0  0  0  0  0  0  0  0  0  0  0  0
   15.0468   16.6239  -13.7810 C   0  0  0  0  0  0  0  0  0  0  0  0
   16.1927   17.2352  -14.3005 C   0  0  0  0  0  0  0  0  0  0  0  0
   16.4385   17.0895  -15.6724 C   0  0  0  0  0  0  0  0  0  0  0  0
   15.5584   16.3887  -16.5049 C   0  0  0  0  0  0  0  0  0  0  0  0
   14.4003   15.8212  -15.9596 C   0  0  0  0  0  0  0  0  0  0  0  0
   14.9525   17.0701  -11.7006 H   0  0  0  0  0  0  0  0  0  0  0  0
   11.6392   13.9122  -15.0335 N   0  0  0  0  0  0  0  0  0  0  0  0
   10.7788   14.6043  -15.9897 C   0  0  0  0  0  0  0  0  0  0  0  0
   11.4834   14.8041  -17.3292 C   0  0  0  0  0  0  0  0  0  0  0  0
   12.1078   13.5204  -17.8848 C   0  0  0  0  0  0  0  0  0  0  0  0
   12.1040   12.3718  -16.8791 C   0  0  0  0  0  0  0  0  0  0  0  0
   12.5446   12.8699  -15.5061 C   0  0  0  0  0  0  0  0  0  0  0  0
   14.9636   15.7333  -18.8008 N   0  0  0  0  0  0  0  0  0  0  0  0
   15.8947   16.2684  -17.9531 C   0  0  0  0  0  0  0  0  0  0  0  0
   16.9871   16.6167  -18.3878 O   0  0  0  0  0  0  0  0  0  0  0  0
   15.2262   15.6555  -19.7748 H   0  0  0  0  0  0  0  0  0  0  0  0
   14.0538   15.3946  -18.5331 H   0  0  0  0  0  0  0  0  0  0  0  0
  3  5  1  0  0  0
  4  2  2  0  0  0
  5  6  2  0  0  0
  6  8  1  0  0  0
  7 15  1  0  0  0
  7  1  2  0  0  0
 16 15  1  0  0  0
 16 17  1  0  0  0
 17 18  1  0  0  0
 18 19  1  0  0  0
 19 20  1  0  0  0
 20 15  1  0  0  0
  9  3  1  0  0  0
  9 10  2  0  0  0
 11 12  2  0  0  0
 12 22  1  0  0  0
 13  8  2  0  0  0
 22 21  1  0  0  0
  4  1  1  0  0  0
  5  2  1  0  0  0
  6  7  1  0  0  0
  8  9  1  0  0  0
 10 11  1  0  0  0
 12 13  1  0  0  0
 22 23  2  0  0  0
  3 14  1  0  0  0
 21 24  1  0  0  0
 21 25  1  0  0  0
M  END
> <minimizedAffinity>
-8.07328

$$$$
CHEMBL3715588


 25 28  0  0  0  0  0  0  0  0999 V2000
   15.2586   15.3310  -18.6537 N   0  0  0  0  0  0  0  0  0  0  0  0
   15.7318   16.1815  -16.4409 N   0  0  0  0  0  0  0  0  0  0  0  0
   13.9884   15.7365  -14.8651 N   0  0  0  0  0  0  0  0  0  0  0  0
   16.0198   15.9496  -17.7307 C   0  0  0  0  0  0  0  0  0  0  0  0
   14.5367   15.6705  -16.1147 C   0  0  0  0  0  0  0  0  0  0  0  0
   13.6538   15.0019  -16.9477 C   0  0  0  0  0  0  0  0  0  0  0  0
   14.0265   14.8712  -18.3043 C   0  0  0  0  0  0  0  0  0  0  0  0
   12.5601   14.5823  -16.1220 C   0  0  0  0  0  0  0  0  0  0  0  0
   12.7756   15.0878  -14.8386 C   0  0  0  0  0  0  0  0  0  0  0  0
   11.8718   14.8954  -13.7885 C   0  0  0  0  0  0  0  0  0  0  0  0
   10.7061   14.1676  -14.0630 C   0  0  0  0  0  0  0  0  0  0  0  0
   10.4632   13.6218  -15.3287 C   0  0  0  0  0  0  0  0  0  0  0  0
   11.4068   13.8004  -16.3477 C   0  0  0  0  0  0  0  0  0  0  0  0
   14.4364   16.1846  -14.0804 H   0  0  0  0  0  0  0  0  0  0  0  0
   13.2186   14.3007  -19.2790 N   0  0  0  0  0  0  0  0  0  0  0  0
   12.8531   15.0986  -20.4467 C   0  0  0  0  0  0  0  0  0  0  0  0
   13.3682   14.4653  -21.7369 C   0  0  0  0  0  0  0  0  0  0  0  0
   13.0088   12.9823  -21.8716 C   0  0  0  0  0  0  0  0  0  0  0  0
   12.4245   12.3917  -20.5907 C   0  0  0  0  0  0  0  0  0  0  0  0
   13.2365   12.8452  -19.3813 C   0  0  0  0  0  0  0  0  0  0  0  0
    8.3861   12.6206  -14.4698 N   0  0  0  0  0  0  0  0  0  0  0  0
    9.1942   12.8685  -15.5456 C   0  0  0  0  0  0  0  0  0  0  0  0
    8.8777   12.4534  -16.6551 O   0  0  0  0  0  0  0  0  0  0  0  0
    7.5382   12.0982  -14.6482 H   0  0  0  0  0  0  0  0  0  0  0  0
    8.5750   12.8957  -13.5196 H   0  0  0  0  0  0  0  0  0  0  0  0
  3  5  1  0  0  0
  4  2  2  0  0  0
  5  6  2  0  0  0
  6  8  1  0  0  0
  7 15  1  0  0  0
  7  1  2  0  0  0
 16 15  1  0  0  0
 16 17  1  0  0  0
 17 18  1  0  0  0
 18 19  1  0  0  0
 19 20  1  0  0  0
 20 15  1  0  0  0
  9  3  1  0  0  0
  9 10  2  0  0  0
 11 12  2  0  0  0
 12 22  1  0  0  0
 13  8  2  0  0  0
 22 21  1  0  0  0
  4  1  1  0  0  0
  5  2  1  0  0  0
  6  7  1  0  0  0
  8  9  1  0  0  0
 10 11  1  0  0  0
 12 13  1  0  0  0
 22 23  2  0  0  0
  3 14  1  0  0  0
 21 24  1  0  0  0
 21 25  1  0  0  0
M  END
> <minimizedAffinity>
-7.86753

$$$$
CHEMBL3719354


 25 28  0  0  0  0  0  0  0  0999 V2000
   13.7757   14.6148  -18.1186 N   0  0  0  0  0  0  0  0  0  0  0  0
   15.3863   15.9406  -16.8970 N   0  0  0  0  0  0  0  0  0  0  0  0
   14.8018   16.2559  -14.5993 N   0  0  0  0  0  0  0  0  0  0  0  0
   14.9169   15.3185  -17.9893 C   0  0  0  0  0  0  0  0  0  0  0  0
   14.5710   15.7561  -15.8496 C   0  0  0  0  0  0  0  0  0  0  0  0
   13.3781   15.0511  -15.8282 C   0  0  0  0  0  0  0  0  0  0  0  0
   12.9420   14.4916  -17.0502 C   0  0  0  0  0  0  0  0  0  0  0  0
   12.9223   15.0716  -14.4696 C   0  0  0  0  0  0  0  0  0  0  0  0
   13.8072   15.8623  -13.7342 C   0  0  0  0  0  0  0  0  0  0  0  0
   13.6326   16.1258  -12.3716 C   0  0  0  0  0  0  0  0  0  0  0  0
   12.5117   15.5669  -11.7429 C   0  0  0  0  0  0  0  0  0  0  0  0
   11.6139   14.7477  -12.4369 C   0  0  0  0  0  0  0  0  0  0  0  0
   11.8389   14.4728  -13.7913 C   0  0  0  0  0  0  0  0  0  0  0  0
   15.6062   16.8154  -14.3600 H   0  0  0  0  0  0  0  0  0  0  0  0
   11.7332   13.8275  -17.2116 N   0  0  0  0  0  0  0  0  0  0  0  0
   11.6694   12.3986  -16.9155 C   0  0  0  0  0  0  0  0  0  0  0  0
   10.6835   12.1077  -15.7866 C   0  0  0  0  0  0  0  0  0  0  0  0
    9.3097   12.7510  -15.9988 C   0  0  0  0  0  0  0  0  0  0  0  0
    9.2868   13.7377  -17.1636 C   0  0  0  0  0  0  0  0  0  0  0  0
   10.5206   14.6341  -17.1212 C   0  0  0  0  0  0  0  0  0  0  0  0
    9.4654   13.5486  -12.4091 N   0  0  0  0  0  0  0  0  0  0  0  0
   10.4387   14.1986  -11.7005 C   0  0  0  0  0  0  0  0  0  0  0  0
   10.3208   14.3377  -10.4880 O   0  0  0  0  0  0  0  0  0  0  0  0
    8.6764   13.1974  -11.8821 H   0  0  0  0  0  0  0  0  0  0  0  0
    9.4605   13.4104  -13.4066 H   0  0  0  0  0  0  0  0  0  0  0  0
  3  5  1  0  0  0
  4  2  2  0  0  0
  5  6  2  0  0  0
  6  8  1  0  0  0
  7 15  1  0  0  0
  7  1  2  0  0  0
 16 15  1  0  0  0
 16 17  1  0  0  0
 17 18  1  0  0  0
 18 19  1  0  0  0
 19 20  1  0  0  0
 20 15  1  0  0  0
  9  3  1  0  0  0
  9 10  2  0  0  0
 11 12  2  0  0  0
 12 22  1  0  0  0
 13  8  2  0  0  0
 22 21  1  0  0  0
  4  1  1  0  0  0
  5  2  1  0  0  0
  6  7  1  0  0  0
  8  9  1  0  0  0
 10 11  1  0  0  0
 12 13  1  0  0  0
 22 23  2  0  0  0
  3 14  1  0  0  0
 21 24  1  0  0  0
 21 25  1  0  0  0
M  END
> <minimizedAffinity>
-9.35185

$$$$
CHEMBL3719354


 25 28  0  0  0  0  0  0  0  0999 V2000
    9.5782   13.6382  -13.8338 N   0  0  0  0  0  0  0  0  0  0  0  0
   10.4471   14.4994  -11.7488 N   0  0  0  0  0  0  0  0  0  0  0  0
   12.5558   15.6025  -11.9879 N   0  0  0  0  0  0  0  0  0  0  0  0
    9.5316   13.8803  -12.5096 C   0  0  0  0  0  0  0  0  0  0  0  0
   11.4817   14.9223  -12.4880 C   0  0  0  0  0  0  0  0  0  0  0  0
   11.6613   14.7583  -13.8524 C   0  0  0  0  0  0  0  0  0  0  0  0
   10.6680   14.0324  -14.5471 C   0  0  0  0  0  0  0  0  0  0  0  0
   12.8714   15.4502  -14.1855 C   0  0  0  0  0  0  0  0  0  0  0  0
   13.4280   15.9322  -12.9993 C   0  0  0  0  0  0  0  0  0  0  0  0
   14.6420   16.6261  -12.9609 C   0  0  0  0  0  0  0  0  0  0  0  0
   15.3112   16.8272  -14.1757 C   0  0  0  0  0  0  0  0  0  0  0  0
   14.7760   16.3830  -15.3902 C   0  0  0  0  0  0  0  0  0  0  0  0
   13.5399   15.7251  -15.3979 C   0  0  0  0  0  0  0  0  0  0  0  0
   12.6644   15.8382  -11.0133 H   0  0  0  0  0  0  0  0  0  0  0  0
   10.7413   13.7140  -15.8967 N   0  0  0  0  0  0  0  0  0  0  0  0
   10.8072   12.3077  -16.2862 C   0  0  0  0  0  0  0  0  0  0  0  0
    9.6113   11.9128  -17.1493 C   0  0  0  0  0  0  0  0  0  0  0  0
    9.3706   12.8635  -18.3259 C   0  0  0  0  0  0  0  0  0  0  0  0
   10.2203   14.1298  -18.2527 C   0  0  0  0  0  0  0  0  0  0  0  0
   10.2063   14.6945  -16.8355 C   0  0  0  0  0  0  0  0  0  0  0  0
   15.9544   17.9020  -16.9258 N   0  0  0  0  0  0  0  0  0  0  0  0
   15.5533   16.6256  -16.6398 C   0  0  0  0  0  0  0  0  0  0  0  0
   15.8169   15.7146  -17.4170 O   0  0  0  0  0  0  0  0  0  0  0  0
   16.4704   18.0352  -17.7859 H   0  0  0  0  0  0  0  0  0  0  0  0
   15.7618   18.7161  -16.3651 H   0  0  0  0  0  0  0  0  0  0  0  0
  3  5  1  0  0  0
  4  2  2  0  0  0
  5  6  2  0  0  0
  6  8  1  0  0  0
  7 15  1  0  0  0
  7  1  2  0  0  0
 16 15  1  0  0  0
 16 17  1  0  0  0
 17 18  1  0  0  0
 18 19  1  0  0  0
 19 20  1  0  0  0
 20 15  1  0  0  0
  9  3  1  0  0  0
  9 10  2  0  0  0
 11 12  2  0  0  0
 12 22  1  0  0  0
 13  8  2  0  0  0
 22 21  1  0  0  0
  4  1  1  0  0  0
  5  2  1  0  0  0
  6  7  1  0  0  0
  8  9  1  0  0  0
 10 11  1  0  0  0
 12 13  1  0  0  0
 22 23  2  0  0  0
  3 14  1  0  0  0
 21 24  1  0  0  0
 21 25  1  0  0  0
M  END
> <minimizedAffinity>
-9.31007

$$$$
CHEMBL3719354


 25 28  0  0  0  0  0  0  0  0999 V2000
   12.3570   13.6500  -19.2282 N   0  0  0  0  0  0  0  0  0  0  0  0
   14.4530   14.8516  -19.1445 N   0  0  0  0  0  0  0  0  0  0  0  0
   14.9416   15.7491  -16.9820 N   0  0  0  0  0  0  0  0  0  0  0  0
   13.5045   14.1224  -19.7520 C   0  0  0  0  0  0  0  0  0  0  0  0
   14.1514   15.0562  -17.8550 C   0  0  0  0  0  0  0  0  0  0  0  0
   13.0218   14.6243  -17.1782 C   0  0  0  0  0  0  0  0  0  0  0  0
   12.0538   13.9213  -17.9297 C   0  0  0  0  0  0  0  0  0  0  0  0
   13.1960   15.0182  -15.8112 C   0  0  0  0  0  0  0  0  0  0  0  0
   14.3810   15.7515  -15.7258 C   0  0  0  0  0  0  0  0  0  0  0  0
   14.8325   16.3225  -14.5313 C   0  0  0  0  0  0  0  0  0  0  0  0
   14.0416   16.1426  -13.3885 C   0  0  0  0  0  0  0  0  0  0  0  0
   12.8601   15.3932  -13.4247 C   0  0  0  0  0  0  0  0  0  0  0  0
   12.4563   14.8029  -14.6285 C   0  0  0  0  0  0  0  0  0  0  0  0
   15.8198   16.1737  -17.2383 H   0  0  0  0  0  0  0  0  0  0  0  0
   10.8355   13.4937  -17.4186 N   0  0  0  0  0  0  0  0  0  0  0  0
    9.8148   14.4901  -17.1038 C   0  0  0  0  0  0  0  0  0  0  0  0
    8.5531   14.2765  -17.9365 C   0  0  0  0  0  0  0  0  0  0  0  0
    8.0352   12.8355  -17.8964 C   0  0  0  0  0  0  0  0  0  0  0  0
    9.0134   11.8686  -17.2338 C   0  0  0  0  0  0  0  0  0  0  0  0
   10.4318   12.1271  -17.7327 C   0  0  0  0  0  0  0  0  0  0  0  0
   12.7182   15.3479  -10.9687 N   0  0  0  0  0  0  0  0  0  0  0  0
   12.0674   15.2561  -12.1687 C   0  0  0  0  0  0  0  0  0  0  0  0
   10.8602   15.0429  -12.1935 O   0  0  0  0  0  0  0  0  0  0  0  0
   12.1543   15.2398  -10.1356 H   0  0  0  0  0  0  0  0  0  0  0  0
   13.7075   15.4926  -10.8483 H   0  0  0  0  0  0  0  0  0  0  0  0
  3  5  1  0  0  0
  4  2  2  0  0  0
  5  6  2  0  0  0
  6  8  1  0  0  0
  7 15  1  0  0  0
  7  1  2  0  0  0
 16 15  1  0  0  0
 16 17  1  0  0  0
 17 18  1  0  0  0
 18 19  1  0  0  0
 19 20  1  0  0  0
 20 15  1  0  0  0
  9  3  1  0  0  0
  9 10  2  0  0  0
 11 12  2  0  0  0
 12 22  1  0  0  0
 13  8  2  0  0  0
 22 21  1  0  0  0
  4  1  1  0  0  0
  5  2  1  0  0  0
  6  7  1  0  0  0
  8  9  1  0  0  0
 10 11  1  0  0  0
 12 13  1  0  0  0
 22 23  2  0  0  0
  3 14  1  0  0  0
 21 24  1  0  0  0
 21 25  1  0  0  0
M  END
> <minimizedAffinity>
-8.65750

$$$$
CHEMBL3719354


 25 28  0  0  0  0  0  0  0  0999 V2000
    9.1109   12.9608  -15.1365 N   0  0  0  0  0  0  0  0  0  0  0  0
    8.8223   13.4065  -12.7782 N   0  0  0  0  0  0  0  0  0  0  0  0
   10.6494   14.6118  -11.8141 N   0  0  0  0  0  0  0  0  0  0  0  0
    8.4388   12.9238  -13.9699 C   0  0  0  0  0  0  0  0  0  0  0  0
   10.0157   14.0100  -12.8641 C   0  0  0  0  0  0  0  0  0  0  0  0
   10.8132   14.1366  -13.9904 C   0  0  0  0  0  0  0  0  0  0  0  0
   10.3448   13.5329  -15.1788 C   0  0  0  0  0  0  0  0  0  0  0  0
   11.9430   14.9261  -13.5974 C   0  0  0  0  0  0  0  0  0  0  0  0
   11.8347   15.1742  -12.2277 C   0  0  0  0  0  0  0  0  0  0  0  0
   12.7993   15.8895  -11.5103 C   0  0  0  0  0  0  0  0  0  0  0  0
   13.9142   16.3603  -12.2168 C   0  0  0  0  0  0  0  0  0  0  0  0
   14.0492   16.1559  -13.5948 C   0  0  0  0  0  0  0  0  0  0  0  0
   13.0466   15.4687  -14.2900 C   0  0  0  0  0  0  0  0  0  0  0  0
   10.2734   14.6461  -10.8788 H   0  0  0  0  0  0  0  0  0  0  0  0
   11.0618   13.5016  -16.3676 N   0  0  0  0  0  0  0  0  0  0  0  0
   11.0697   14.6899  -17.2171 C   0  0  0  0  0  0  0  0  0  0  0  0
   12.4831   15.2404  -17.3908 C   0  0  0  0  0  0  0  0  0  0  0  0
   13.5013   14.1776  -17.8151 C   0  0  0  0  0  0  0  0  0  0  0  0
   12.9459   12.7573  -17.7429 C   0  0  0  0  0  0  0  0  0  0  0  0
   12.1721   12.5578  -16.4433 C   0  0  0  0  0  0  0  0  0  0  0  0
   16.2855   17.1784  -13.5052 N   0  0  0  0  0  0  0  0  0  0  0  0
   15.2700   16.6785  -14.2739 C   0  0  0  0  0  0  0  0  0  0  0  0
   15.3684   16.6879  -15.4961 O   0  0  0  0  0  0  0  0  0  0  0  0
   17.0951   17.5350  -13.9963 H   0  0  0  0  0  0  0  0  0  0  0  0
   16.2842   17.2385  -12.4999 H   0  0  0  0  0  0  0  0  0  0  0  0
  3  5  1  0  0  0
  4  2  2  0  0  0
  5  6  2  0  0  0
  6  8  1  0  0  0
  7 15  1  0  0  0
  7  1  2  0  0  0
 16 15  1  0  0  0
 16 17  1  0  0  0
 17 18  1  0  0  0
 18 19  1  0  0  0
 19 20  1  0  0  0
 20 15  1  0  0  0
  9  3  1  0  0  0
  9 10  2  0  0  0
 11 12  2  0  0  0
 12 22  1  0  0  0
 13  8  2  0  0  0
 22 21  1  0  0  0
  4  1  1  0  0  0
  5  2  1  0  0  0
  6  7  1  0  0  0
  8  9  1  0  0  0
 10 11  1  0  0  0
 12 13  1  0  0  0
 22 23  2  0  0  0
  3 14  1  0  0  0
 21 24  1  0  0  0
 21 25  1  0  0  0
M  END
> <minimizedAffinity>
-8.39451

$$$$
CHEMBL3719354


 25 28  0  0  0  0  0  0  0  0999 V2000
   10.4882   12.8092  -17.9754 N   0  0  0  0  0  0  0  0  0  0  0  0
    8.5567   12.3955  -16.5818 N   0  0  0  0  0  0  0  0  0  0  0  0
    8.8652   13.0826  -14.3117 N   0  0  0  0  0  0  0  0  0  0  0  0
    9.2291   12.3911  -17.7429 C   0  0  0  0  0  0  0  0  0  0  0  0
    9.2955   12.9290  -15.5992 C   0  0  0  0  0  0  0  0  0  0  0  0
   10.5920   13.4098  -15.6901 C   0  0  0  0  0  0  0  0  0  0  0  0
   11.2317   13.2957  -16.9447 C   0  0  0  0  0  0  0  0  0  0  0  0
   10.9132   13.9486  -14.4014 C   0  0  0  0  0  0  0  0  0  0  0  0
    9.8346   13.6954  -13.5519 C   0  0  0  0  0  0  0  0  0  0  0  0
    9.8350   14.0572  -12.2007 C   0  0  0  0  0  0  0  0  0  0  0  0
   10.9798   14.6929  -11.7014 C   0  0  0  0  0  0  0  0  0  0  0  0
   12.0725   14.9884  -12.5244 C   0  0  0  0  0  0  0  0  0  0  0  0
   12.0242   14.6468  -13.8815 C   0  0  0  0  0  0  0  0  0  0  0  0
    7.9527   12.7989  -13.9890 H   0  0  0  0  0  0  0  0  0  0  0  0
   12.5524   13.6557  -17.1775 N   0  0  0  0  0  0  0  0  0  0  0  0
   13.2709   13.0236  -18.2812 C   0  0  0  0  0  0  0  0  0  0  0  0
   13.7185   14.0531  -19.3159 C   0  0  0  0  0  0  0  0  0  0  0  0
   14.4610   15.2456  -18.7051 C   0  0  0  0  0  0  0  0  0  0  0  0
   14.3888   15.2753  -17.1803 C   0  0  0  0  0  0  0  0  0  0  0  0
   12.9681   14.9749  -16.7125 C   0  0  0  0  0  0  0  0  0  0  0  0
   14.2439   16.1251  -12.7429 N   0  0  0  0  0  0  0  0  0  0  0  0
   13.2590   15.6573  -11.9164 C   0  0  0  0  0  0  0  0  0  0  0  0
   13.3755   15.7740  -10.7014 O   0  0  0  0  0  0  0  0  0  0  0  0
   15.0402   16.5640  -12.2992 H   0  0  0  0  0  0  0  0  0  0  0  0
   14.2503   16.0504  -13.7472 H   0  0  0  0  0  0  0  0  0  0  0  0
  3  5  1  0  0  0
  4  2  2  0  0  0
  5  6  2  0  0  0
  6  8  1  0  0  0
  7 15  1  0  0  0
  7  1  2  0  0  0
 16 15  1  0  0  0
 16 17  1  0  0  0
 17 18  1  0  0  0
 18 19  1  0  0  0
 19 20  1  0  0  0
 20 15  1  0  0  0
  9  3  1  0  0  0
  9 10  2  0  0  0
 11 12  2  0  0  0
 12 22  1  0  0  0
 13  8  2  0  0  0
 22 21  1  0  0  0
  4  1  1  0  0  0
  5  2  1  0  0  0
  6  7  1  0  0  0
  8  9  1  0  0  0
 10 11  1  0  0  0
 12 13  1  0  0  0
 22 23  2  0  0  0
  3 14  1  0  0  0
 21 24  1  0  0  0
 21 25  1  0  0  0
M  END
> <minimizedAffinity>
-8.25907

$$$$
CHEMBL3719354


 25 28  0  0  0  0  0  0  0  0999 V2000
    9.6917   12.9403  -18.2701 N   0  0  0  0  0  0  0  0  0  0  0  0
    8.6583   12.6773  -16.1006 N   0  0  0  0  0  0  0  0  0  0  0  0
    9.9290   13.6526  -14.3245 N   0  0  0  0  0  0  0  0  0  0  0  0
    8.7167   12.5356  -17.4336 C   0  0  0  0  0  0  0  0  0  0  0  0
    9.7260   13.3430  -15.6395 C   0  0  0  0  0  0  0  0  0  0  0  0
   10.7948   13.8286  -16.3759 C   0  0  0  0  0  0  0  0  0  0  0  0
   10.7892   13.5657  -17.7641 C   0  0  0  0  0  0  0  0  0  0  0  0
   11.6344   14.5320  -15.4515 C   0  0  0  0  0  0  0  0  0  0  0  0
   11.0918   14.3721  -14.1751 C   0  0  0  0  0  0  0  0  0  0  0  0
   11.6898   14.9030  -13.0273 C   0  0  0  0  0  0  0  0  0  0  0  0
   12.8857   15.6150  -13.1909 C   0  0  0  0  0  0  0  0  0  0  0  0
   13.4499   15.8204  -14.4552 C   0  0  0  0  0  0  0  0  0  0  0  0
   12.8055   15.3081  -15.5878 C   0  0  0  0  0  0  0  0  0  0  0  0
    9.2922   13.3979  -13.5849 H   0  0  0  0  0  0  0  0  0  0  0  0
   11.8228   13.9139  -18.6236 N   0  0  0  0  0  0  0  0  0  0  0  0
   13.0540   13.1282  -18.5994 C   0  0  0  0  0  0  0  0  0  0  0  0
   13.3182   12.4659  -19.9493 C   0  0  0  0  0  0  0  0  0  0  0  0
   13.2354   13.4384  -21.1300 C   0  0  0  0  0  0  0  0  0  0  0  0
   12.6748   14.8038  -20.7395 C   0  0  0  0  0  0  0  0  0  0  0  0
   11.4561   14.6364  -19.8371 C   0  0  0  0  0  0  0  0  0  0  0  0
   15.4509   16.7914  -13.4027 N   0  0  0  0  0  0  0  0  0  0  0  0
   14.7305   16.5798  -14.5464 C   0  0  0  0  0  0  0  0  0  0  0  0
   15.1325   17.0314  -15.6132 O   0  0  0  0  0  0  0  0  0  0  0  0
   16.3091   17.3190  -13.4963 H   0  0  0  0  0  0  0  0  0  0  0  0
   15.1884   16.4850  -12.4799 H   0  0  0  0  0  0  0  0  0  0  0  0
  3  5  1  0  0  0
  4  2  2  0  0  0
  5  6  2  0  0  0
  6  8  1  0  0  0
  7 15  1  0  0  0
  7  1  2  0  0  0
 16 15  1  0  0  0
 16 17  1  0  0  0
 17 18  1  0  0  0
 18 19  1  0  0  0
 19 20  1  0  0  0
 20 15  1  0  0  0
  9  3  1  0  0  0
  9 10  2  0  0  0
 11 12  2  0  0  0
 12 22  1  0  0  0
 13  8  2  0  0  0
 22 21  1  0  0  0
  4  1  1  0  0  0
  5  2  1  0  0  0
  6  7  1  0  0  0
  8  9  1  0  0  0
 10 11  1  0  0  0
 12 13  1  0  0  0
 22 23  2  0  0  0
  3 14  1  0  0  0
 21 24  1  0  0  0
 21 25  1  0  0  0
M  END
> <minimizedAffinity>
-8.25698

$$$$
CHEMBL3719354


 25 28  0  0  0  0  0  0  0  0999 V2000
   12.3469   13.6212  -15.5978 N   0  0  0  0  0  0  0  0  0  0  0  0
   13.2073   13.1723  -17.8118 N   0  0  0  0  0  0  0  0  0  0  0  0
   14.9708   14.6531  -18.4581 N   0  0  0  0  0  0  0  0  0  0  0  0
   12.4082   12.9414  -16.7590 C   0  0  0  0  0  0  0  0  0  0  0  0
   14.0321   14.2014  -17.5743 C   0  0  0  0  0  0  0  0  0  0  0  0
   14.0928   14.9820  -16.4308 C   0  0  0  0  0  0  0  0  0  0  0  0
   13.1603   14.6956  -15.4088 C   0  0  0  0  0  0  0  0  0  0  0  0
   15.1821   15.8935  -16.6227 C   0  0  0  0  0  0  0  0  0  0  0  0
   15.6850   15.6931  -17.9096 C   0  0  0  0  0  0  0  0  0  0  0  0
   16.7354   16.4511  -18.4375 C   0  0  0  0  0  0  0  0  0  0  0  0
   17.2843   17.4513  -17.6239 C   0  0  0  0  0  0  0  0  0  0  0  0
   16.8271   17.6684  -16.3190 C   0  0  0  0  0  0  0  0  0  0  0  0
   15.7996   16.8663  -15.8075 C   0  0  0  0  0  0  0  0  0  0  0  0
   15.1176   14.2524  -19.3721 H   0  0  0  0  0  0  0  0  0  0  0  0
   13.0394   15.4351  -14.2397 N   0  0  0  0  0  0  0  0  0  0  0  0
   11.7157   15.6007  -13.6446 C   0  0  0  0  0  0  0  0  0  0  0  0
   11.6570   15.0003  -12.2421 C   0  0  0  0  0  0  0  0  0  0  0  0
   12.7994   15.4653  -11.3337 C   0  0  0  0  0  0  0  0  0  0  0  0
   13.8827   16.2354  -12.0848 C   0  0  0  0  0  0  0  0  0  0  0  0
   14.2239   15.5277  -13.3926 C   0  0  0  0  0  0  0  0  0  0  0  0
   17.5472   18.6085  -14.1621 N   0  0  0  0  0  0  0  0  0  0  0  0
   17.4551   18.7594  -15.5188 C   0  0  0  0  0  0  0  0  0  0  0  0
   17.8653   19.7867  -16.0479 O   0  0  0  0  0  0  0  0  0  0  0  0
   17.9683   19.3707  -13.6469 H   0  0  0  0  0  0  0  0  0  0  0  0
   17.2143   17.8164  -13.6368 H   0  0  0  0  0  0  0  0  0  0  0  0
  3  5  1  0  0  0
  4  2  2  0  0  0
  5  6  2  0  0  0
  6  8  1  0  0  0
  7 15  1  0  0  0
  7  1  2  0  0  0
 16 15  1  0  0  0
 16 17  1  0  0  0
 17 18  1  0  0  0
 18 19  1  0  0  0
 19 20  1  0  0  0
 20 15  1  0  0  0
  9  3  1  0  0  0
  9 10  2  0  0  0
 11 12  2  0  0  0
 12 22  1  0  0  0
 13  8  2  0  0  0
 22 21  1  0  0  0
  4  1  1  0  0  0
  5  2  1  0  0  0
  6  7  1  0  0  0
  8  9  1  0  0  0
 10 11  1  0  0  0
 12 13  1  0  0  0
 22 23  2  0  0  0
  3 14  1  0  0  0
 21 24  1  0  0  0
 21 25  1  0  0  0
M  END
> <minimizedAffinity>
-8.09456

$$$$
CHEMBL3719354


 25 28  0  0  0  0  0  0  0  0999 V2000
   11.1898   14.4178  -12.7627 N   0  0  0  0  0  0  0  0  0  0  0  0
   12.6509   15.7192  -11.3430 N   0  0  0  0  0  0  0  0  0  0  0  0
   14.5475   16.6061  -12.4994 N   0  0  0  0  0  0  0  0  0  0  0  0
   11.5579   14.9837  -11.5971 C   0  0  0  0  0  0  0  0  0  0  0  0
   13.3879   15.8854  -12.4498 C   0  0  0  0  0  0  0  0  0  0  0  0
   13.1313   15.3776  -13.7134 C   0  0  0  0  0  0  0  0  0  0  0  0
   11.9880   14.5596  -13.8556 C   0  0  0  0  0  0  0  0  0  0  0  0
   14.1563   15.8948  -14.5713 C   0  0  0  0  0  0  0  0  0  0  0  0
   15.0468   16.6239  -13.7810 C   0  0  0  0  0  0  0  0  0  0  0  0
   16.1927   17.2352  -14.3005 C   0  0  0  0  0  0  0  0  0  0  0  0
   16.4385   17.0895  -15.6724 C   0  0  0  0  0  0  0  0  0  0  0  0
   15.5584   16.3887  -16.5049 C   0  0  0  0  0  0  0  0  0  0  0  0
   14.4003   15.8212  -15.9596 C   0  0  0  0  0  0  0  0  0  0  0  0
   14.9525   17.0701  -11.7006 H   0  0  0  0  0  0  0  0  0  0  0  0
   11.6392   13.9122  -15.0335 N   0  0  0  0  0  0  0  0  0  0  0  0
   10.7788   14.6043  -15.9897 C   0  0  0  0  0  0  0  0  0  0  0  0
   11.4834   14.8041  -17.3292 C   0  0  0  0  0  0  0  0  0  0  0  0
   12.1078   13.5204  -17.8848 C   0  0  0  0  0  0  0  0  0  0  0  0
   12.1040   12.3718  -16.8791 C   0  0  0  0  0  0  0  0  0  0  0  0
   12.5446   12.8699  -15.5061 C   0  0  0  0  0  0  0  0  0  0  0  0
   14.9636   15.7333  -18.8008 N   0  0  0  0  0  0  0  0  0  0  0  0
   15.8947   16.2684  -17.9531 C   0  0  0  0  0  0  0  0  0  0  0  0
   16.9871   16.6167  -18.3878 O   0  0  0  0  0  0  0  0  0  0  0  0
   15.2262   15.6555  -19.7748 H   0  0  0  0  0  0  0  0  0  0  0  0
   14.0538   15.3946  -18.5331 H   0  0  0  0  0  0  0  0  0  0  0  0
  3  5  1  0  0  0
  4  2  2  0  0  0
  5  6  2  0  0  0
  6  8  1  0  0  0
  7 15  1  0  0  0
  7  1  2  0  0  0
 16 15  1  0  0  0
 16 17  1  0  0  0
 17 18  1  0  0  0
 18 19  1  0  0  0
 19 20  1  0  0  0
 20 15  1  0  0  0
  9  3  1  0  0  0
  9 10  2  0  0  0
 11 12  2  0  0  0
 12 22  1  0  0  0
 13  8  2  0  0  0
 22 21  1  0  0  0
  4  1  1  0  0  0
  5  2  1  0  0  0
  6  7  1  0  0  0
  8  9  1  0  0  0
 10 11  1  0  0  0
 12 13  1  0  0  0
 22 23  2  0  0  0
  3 14  1  0  0  0
 21 24  1  0  0  0
 21 25  1  0  0  0
M  END
> <minimizedAffinity>
-8.07328

$$$$
CHEMBL3719354


 25 28  0  0  0  0  0  0  0  0999 V2000
   15.2586   15.3310  -18.6537 N   0  0  0  0  0  0  0  0  0  0  0  0
   15.7318   16.1815  -16.4409 N   0  0  0  0  0  0  0  0  0  0  0  0
   13.9884   15.7365  -14.8651 N   0  0  0  0  0  0  0  0  0  0  0  0
   16.0198   15.9496  -17.7307 C   0  0  0  0  0  0  0  0  0  0  0  0
   14.5367   15.6705  -16.1147 C   0  0  0  0  0  0  0  0  0  0  0  0
   13.6538   15.0019  -16.9477 C   0  0  0  0  0  0  0  0  0  0  0  0
   14.0265   14.8712  -18.3043 C   0  0  0  0  0  0  0  0  0  0  0  0
   12.5601   14.5823  -16.1220 C   0  0  0  0  0  0  0  0  0  0  0  0
   12.7756   15.0878  -14.8386 C   0  0  0  0  0  0  0  0  0  0  0  0
   11.8718   14.8954  -13.7885 C   0  0  0  0  0  0  0  0  0  0  0  0
   10.7061   14.1676  -14.0630 C   0  0  0  0  0  0  0  0  0  0  0  0
   10.4632   13.6218  -15.3287 C   0  0  0  0  0  0  0  0  0  0  0  0
   11.4068   13.8004  -16.3477 C   0  0  0  0  0  0  0  0  0  0  0  0
   14.4364   16.1846  -14.0804 H   0  0  0  0  0  0  0  0  0  0  0  0
   13.2186   14.3007  -19.2790 N   0  0  0  0  0  0  0  0  0  0  0  0
   12.8531   15.0986  -20.4467 C   0  0  0  0  0  0  0  0  0  0  0  0
   13.3682   14.4653  -21.7369 C   0  0  0  0  0  0  0  0  0  0  0  0
   13.0088   12.9823  -21.8716 C   0  0  0  0  0  0  0  0  0  0  0  0
   12.4245   12.3917  -20.5907 C   0  0  0  0  0  0  0  0  0  0  0  0
   13.2365   12.8452  -19.3813 C   0  0  0  0  0  0  0  0  0  0  0  0
    8.3861   12.6206  -14.4698 N   0  0  0  0  0  0  0  0  0  0  0  0
    9.1942   12.8685  -15.5456 C   0  0  0  0  0  0  0  0  0  0  0  0
    8.8777   12.4534  -16.6551 O   0  0  0  0  0  0  0  0  0  0  0  0
    7.5382   12.0982  -14.6482 H   0  0  0  0  0  0  0  0  0  0  0  0
    8.5750   12.8957  -13.5196 H   0  0  0  0  0  0  0  0  0  0  0  0
  3  5  1  0  0  0
  4  2  2  0  0  0
  5  6  2  0  0  0
  6  8  1  0  0  0
  7 15  1  0  0  0
  7  1  2  0  0  0
 16 15  1  0  0  0
 16 17  1  0  0  0
 17 18  1  0  0  0
 18 19  1  0  0  0
 19 20  1  0  0  0
 20 15  1  0  0  0
  9  3  1  0  0  0
  9 10  2  0  0  0
 11 12  2  0  0  0
 12 22  1  0  0  0
 13  8  2  0  0  0
 22 21  1  0  0  0
  4  1  1  0  0  0
  5  2  1  0  0  0
  6  7  1  0  0  0
  8  9  1  0  0  0
 10 11  1  0  0  0
 12 13  1  0  0  0
 22 23  2  0  0  0
  3 14  1  0  0  0
 21 24  1  0  0  0
 21 25  1  0  0  0
M  END
> <minimizedAffinity>
-7.86753

$$$$
CHEMBL3716162


 26 29  0  0  0  0  0  0  0  0999 V2000
    9.6739   13.6212  -13.9836 N   0  0  0  0  0  0  0  0  0  0  0  0
   10.4773   14.6043  -11.9261 N   0  0  0  0  0  0  0  0  0  0  0  0
   12.5817   15.7118  -12.1643 N   0  0  0  0  0  0  0  0  0  0  0  0
    9.5894   13.9344  -12.6770 C   0  0  0  0  0  0  0  0  0  0  0  0
   11.5287   14.9961  -12.6587 C   0  0  0  0  0  0  0  0  0  0  0  0
   11.7490   14.7619  -14.0069 C   0  0  0  0  0  0  0  0  0  0  0  0
   10.7769   13.9927  -14.6890 C   0  0  0  0  0  0  0  0  0  0  0  0
   12.9688   15.4432  -14.3389 C   0  0  0  0  0  0  0  0  0  0  0  0
   13.4839   15.9934  -13.1634 C   0  0  0  0  0  0  0  0  0  0  0  0
   14.6964   16.6918  -13.1212 C   0  0  0  0  0  0  0  0  0  0  0  0
   15.4153   16.8313  -14.3179 C   0  0  0  0  0  0  0  0  0  0  0  0
   14.9237   16.3180  -15.5218 C   0  0  0  0  0  0  0  0  0  0  0  0
   13.6899   15.6483  -15.5342 C   0  0  0  0  0  0  0  0  0  0  0  0
   12.6589   15.9956  -11.1998 H   0  0  0  0  0  0  0  0  0  0  0  0
   10.8789   13.6310  -16.0219 N   0  0  0  0  0  0  0  0  0  0  0  0
   10.8800   12.2119  -16.3705 C   0  0  0  0  0  0  0  0  0  0  0  0
    9.5196   11.7852  -16.9264 C   0  0  0  0  0  0  0  0  0  0  0  0
    9.0242   12.7014  -18.0545 C   0  0  0  0  0  0  0  0  0  0  0  0
    9.0524   14.1629  -17.5809 C   0  0  0  0  0  0  0  0  0  0  0  0
   10.4207   14.5716  -17.0379 C   0  0  0  0  0  0  0  0  0  0  0  0
    9.8248   12.4991  -19.3446 C   0  0  0  0  0  0  0  0  0  0  0  0
   16.0497   17.6369  -17.2702 N   0  0  0  0  0  0  0  0  0  0  0  0
   15.6513   16.4105  -16.8215 C   0  0  0  0  0  0  0  0  0  0  0  0
   15.9068   15.4110  -17.4857 O   0  0  0  0  0  0  0  0  0  0  0  0
   16.5481   17.6525  -18.1509 H   0  0  0  0  0  0  0  0  0  0  0  0
   15.8808   18.5136  -16.8061 H   0  0  0  0  0  0  0  0  0  0  0  0
  3  5  1  0  0  0
  4  2  2  0  0  0
  5  6  2  0  0  0
  6  8  1  0  0  0
  7 15  1  0  0  0
  7  1  2  0  0  0
 16 15  1  0  0  0
 16 17  1  0  0  0
 17 18  1  0  0  0
 18 19  1  0  0  0
 18 21  1  0  0  0
 19 20  1  0  0  0
 20 15  1  0  0  0
  9  3  1  0  0  0
  9 10  2  0  0  0
 11 12  2  0  0  0
 12 23  1  0  0  0
 13  8  2  0  0  0
 23 22  1  0  0  0
  4  1  1  0  0  0
  5  2  1  0  0  0
  6  7  1  0  0  0
  8  9  1  0  0  0
 10 11  1  0  0  0
 12 13  1  0  0  0
 23 24  2  0  0  0
  3 14  1  0  0  0
 22 25  1  0  0  0
 22 26  1  0  0  0
M  END
> <minimizedAffinity>
-9.83399

$$$$
CHEMBL3716162


 26 29  0  0  0  0  0  0  0  0999 V2000
   13.2111   14.1942  -18.1562 N   0  0  0  0  0  0  0  0  0  0  0  0
   15.0260   15.5495  -17.3107 N   0  0  0  0  0  0  0  0  0  0  0  0
   14.7984   16.0994  -14.9961 N   0  0  0  0  0  0  0  0  0  0  0  0
   14.3799   14.8543  -18.2596 C   0  0  0  0  0  0  0  0  0  0  0  0
   14.3682   15.4979  -16.1444 C   0  0  0  0  0  0  0  0  0  0  0  0
   13.1701   14.8525  -15.8819 C   0  0  0  0  0  0  0  0  0  0  0  0
   12.5438   14.2003  -16.9702 C   0  0  0  0  0  0  0  0  0  0  0  0
   12.9198   15.0252  -14.4784 C   0  0  0  0  0  0  0  0  0  0  0  0
   13.9309   15.8377  -13.9614 C   0  0  0  0  0  0  0  0  0  0  0  0
   13.9667   16.2439  -12.6222 C   0  0  0  0  0  0  0  0  0  0  0  0
   12.9325   15.8125  -11.7779 C   0  0  0  0  0  0  0  0  0  0  0  0
   11.9146   14.9775  -12.2482 C   0  0  0  0  0  0  0  0  0  0  0  0
   11.9249   14.5649  -13.5901 C   0  0  0  0  0  0  0  0  0  0  0  0
   15.6452   16.6435  -14.9354 H   0  0  0  0  0  0  0  0  0  0  0  0
   11.3211   13.5562  -16.8805 N   0  0  0  0  0  0  0  0  0  0  0  0
   10.1027   14.3602  -16.8126 C   0  0  0  0  0  0  0  0  0  0  0  0
    9.3796   14.3705  -18.1612 C   0  0  0  0  0  0  0  0  0  0  0  0
    9.1628   12.9612  -18.7307 C   0  0  0  0  0  0  0  0  0  0  0  0
   10.5023   12.2094  -18.7686 C   0  0  0  0  0  0  0  0  0  0  0  0
   11.2039   12.2030  -17.4114 C   0  0  0  0  0  0  0  0  0  0  0  0
    8.0926   12.1911  -17.9510 C   0  0  0  0  0  0  0  0  0  0  0  0
   11.0137   14.1357  -10.1165 N   0  0  0  0  0  0  0  0  0  0  0  0
   10.7745   14.5059  -11.4087 C   0  0  0  0  0  0  0  0  0  0  0  0
    9.6311   14.4549  -11.8508 O   0  0  0  0  0  0  0  0  0  0  0  0
   10.2108   13.8316   -9.5806 H   0  0  0  0  0  0  0  0  0  0  0  0
   11.9131   14.1323   -9.6652 H   0  0  0  0  0  0  0  0  0  0  0  0
  3  5  1  0  0  0
  4  2  2  0  0  0
  5  6  2  0  0  0
  6  8  1  0  0  0
  7 15  1  0  0  0
  7  1  2  0  0  0
 16 15  1  0  0  0
 16 17  1  0  0  0
 17 18  1  0  0  0
 18 19  1  0  0  0
 18 21  1  0  0  0
 19 20  1  0  0  0
 20 15  1  0  0  0
  9  3  1  0  0  0
  9 10  2  0  0  0
 11 12  2  0  0  0
 12 23  1  0  0  0
 13  8  2  0  0  0
 23 22  1  0  0  0
  4  1  1  0  0  0
  5  2  1  0  0  0
  6  7  1  0  0  0
  8  9  1  0  0  0
 10 11  1  0  0  0
 12 13  1  0  0  0
 23 24  2  0  0  0
  3 14  1  0  0  0
 22 25  1  0  0  0
 22 26  1  0  0  0
M  END
> <minimizedAffinity>
-9.10909

$$$$
CHEMBL3716162


 26 29  0  0  0  0  0  0  0  0999 V2000
    9.3243   13.4429  -15.5095 N   0  0  0  0  0  0  0  0  0  0  0  0
    9.0991   13.3973  -13.1027 N   0  0  0  0  0  0  0  0  0  0  0  0
   10.9294   14.4257  -11.9608 N   0  0  0  0  0  0  0  0  0  0  0  0
    8.6900   13.1545  -14.3576 C   0  0  0  0  0  0  0  0  0  0  0  0
   10.2777   14.0349  -13.0957 C   0  0  0  0  0  0  0  0  0  0  0  0
   11.0392   14.4078  -14.1921 C   0  0  0  0  0  0  0  0  0  0  0  0
   10.5423   14.0486  -15.4672 C   0  0  0  0  0  0  0  0  0  0  0  0
   12.1695   15.1242  -13.6712 C   0  0  0  0  0  0  0  0  0  0  0  0
   12.0936   15.0860  -12.2773 C   0  0  0  0  0  0  0  0  0  0  0  0
   13.0690   15.6541  -11.4492 C   0  0  0  0  0  0  0  0  0  0  0  0
   14.1658   16.2795  -12.0609 C   0  0  0  0  0  0  0  0  0  0  0  0
   14.2684   16.3626  -13.4527 C   0  0  0  0  0  0  0  0  0  0  0  0
   13.2576   15.8079  -14.2537 C   0  0  0  0  0  0  0  0  0  0  0  0
   10.5797   14.2553  -11.0305 H   0  0  0  0  0  0  0  0  0  0  0  0
   11.2103   14.3043  -16.6530 N   0  0  0  0  0  0  0  0  0  0  0  0
   12.4704   13.6131  -16.9169 C   0  0  0  0  0  0  0  0  0  0  0  0
   12.2680   12.4711  -17.9153 C   0  0  0  0  0  0  0  0  0  0  0  0
   11.5255   12.9146  -19.1838 C   0  0  0  0  0  0  0  0  0  0  0  0
   10.2154   13.6170  -18.7948 C   0  0  0  0  0  0  0  0  0  0  0  0
   10.4397   14.7588  -17.8048 C   0  0  0  0  0  0  0  0  0  0  0  0
   12.4046   13.7923  -20.0799 C   0  0  0  0  0  0  0  0  0  0  0  0
   16.5505   17.2877  -13.4571 N   0  0  0  0  0  0  0  0  0  0  0  0
   15.4205   16.9907  -14.1634 C   0  0  0  0  0  0  0  0  0  0  0  0
   15.3769   17.2340  -15.3652 O   0  0  0  0  0  0  0  0  0  0  0  0
   17.3106   17.7037  -13.9802 H   0  0  0  0  0  0  0  0  0  0  0  0
   16.6813   17.1370  -12.4708 H   0  0  0  0  0  0  0  0  0  0  0  0
  3  5  1  0  0  0
  4  2  2  0  0  0
  5  6  2  0  0  0
  6  8  1  0  0  0
  7 15  1  0  0  0
  7  1  2  0  0  0
 16 15  1  0  0  0
 16 17  1  0  0  0
 17 18  1  0  0  0
 18 19  1  0  0  0
 18 21  1  0  0  0
 19 20  1  0  0  0
 20 15  1  0  0  0
  9  3  1  0  0  0
  9 10  2  0  0  0
 11 12  2  0  0  0
 12 23  1  0  0  0
 13  8  2  0  0  0
 23 22  1  0  0  0
  4  1  1  0  0  0
  5  2  1  0  0  0
  6  7  1  0  0  0
  8  9  1  0  0  0
 10 11  1  0  0  0
 12 13  1  0  0  0
 23 24  2  0  0  0
  3 14  1  0  0  0
 22 25  1  0  0  0
 22 26  1  0  0  0
M  END
> <minimizedAffinity>
-8.87862

$$$$
CHEMBL3716162


 26 29  0  0  0  0  0  0  0  0999 V2000
   13.2662   14.4996  -17.2602 N   0  0  0  0  0  0  0  0  0  0  0  0
   14.0416   13.6141  -19.3721 N   0  0  0  0  0  0  0  0  0  0  0  0
   12.3842   12.3405  -20.5307 N   0  0  0  0  0  0  0  0  0  0  0  0
   14.1745   14.3179  -18.2371 C   0  0  0  0  0  0  0  0  0  0  0  0
   12.8120   13.0912  -19.4729 C   0  0  0  0  0  0  0  0  0  0  0  0
   11.7733   13.2016  -18.5618 C   0  0  0  0  0  0  0  0  0  0  0  0
   12.0417   13.9159  -17.3703 C   0  0  0  0  0  0  0  0  0  0  0  0
   10.6467   12.5370  -19.1545 C   0  0  0  0  0  0  0  0  0  0  0  0
   11.0680   11.9781  -20.3628 C   0  0  0  0  0  0  0  0  0  0  0  0
   10.2249   11.2165  -21.1806 C   0  0  0  0  0  0  0  0  0  0  0  0
    8.9052   11.0104  -20.7512 C   0  0  0  0  0  0  0  0  0  0  0  0
    8.4349   11.5729  -19.5609 C   0  0  0  0  0  0  0  0  0  0  0  0
    9.2988   12.3560  -18.7788 C   0  0  0  0  0  0  0  0  0  0  0  0
   12.9659   12.1084  -21.3209 H   0  0  0  0  0  0  0  0  0  0  0  0
   11.1258   14.0701  -16.3431 N   0  0  0  0  0  0  0  0  0  0  0  0
   10.6693   12.8850  -15.6203 C   0  0  0  0  0  0  0  0  0  0  0  0
   11.3552   12.7795  -14.2563 C   0  0  0  0  0  0  0  0  0  0  0  0
   11.2624   14.0777  -13.4419 C   0  0  0  0  0  0  0  0  0  0  0  0
   11.7754   15.2538  -14.2873 C   0  0  0  0  0  0  0  0  0  0  0  0
   11.0725   15.3470  -15.6406 C   0  0  0  0  0  0  0  0  0  0  0  0
    9.8434   14.3209  -12.9189 C   0  0  0  0  0  0  0  0  0  0  0  0
    6.3619   10.2526  -19.4091 N   0  0  0  0  0  0  0  0  0  0  0  0
    7.0523   11.3701  -19.0371 C   0  0  0  0  0  0  0  0  0  0  0  0
    6.5309   12.1775  -18.2745 O   0  0  0  0  0  0  0  0  0  0  0  0
    5.4318   10.1502  -19.0232 H   0  0  0  0  0  0  0  0  0  0  0  0
    6.6960    9.5388  -20.0348 H   0  0  0  0  0  0  0  0  0  0  0  0
  3  5  1  0  0  0
  4  2  2  0  0  0
  5  6  2  0  0  0
  6  8  1  0  0  0
  7 15  1  0  0  0
  7  1  2  0  0  0
 16 15  1  0  0  0
 16 17  1  0  0  0
 17 18  1  0  0  0
 18 19  1  0  0  0
 18 21  1  0  0  0
 19 20  1  0  0  0
 20 15  1  0  0  0
  9  3  1  0  0  0
  9 10  2  0  0  0
 11 12  2  0  0  0
 12 23  1  0  0  0
 13  8  2  0  0  0
 23 22  1  0  0  0
  4  1  1  0  0  0
  5  2  1  0  0  0
  6  7  1  0  0  0
  8  9  1  0  0  0
 10 11  1  0  0  0
 12 13  1  0  0  0
 23 24  2  0  0  0
  3 14  1  0  0  0
 22 25  1  0  0  0
 22 26  1  0  0  0
M  END
> <minimizedAffinity>
-8.42195

$$$$
CHEMBL3716162


 26 29  0  0  0  0  0  0  0  0999 V2000
   14.9742   14.9793  -18.5107 N   0  0  0  0  0  0  0  0  0  0  0  0
   15.9859   16.4231  -16.8562 N   0  0  0  0  0  0  0  0  0  0  0  0
   14.7784   16.4928  -14.7950 N   0  0  0  0  0  0  0  0  0  0  0  0
   15.9193   15.8226  -18.0546 C   0  0  0  0  0  0  0  0  0  0  0  0
   14.9614   16.0539  -16.0754 C   0  0  0  0  0  0  0  0  0  0  0  0
   13.9260   15.1909  -16.3979 C   0  0  0  0  0  0  0  0  0  0  0  0
   13.9210   14.6610  -17.7098 C   0  0  0  0  0  0  0  0  0  0  0  0
   13.1280   15.0595  -15.2112 C   0  0  0  0  0  0  0  0  0  0  0  0
   13.6616   15.9112  -14.2417 C   0  0  0  0  0  0  0  0  0  0  0  0
   13.0941   16.0632  -12.9710 C   0  0  0  0  0  0  0  0  0  0  0  0
   11.9372   15.3259  -12.6766 C   0  0  0  0  0  0  0  0  0  0  0  0
   11.3847   14.4428  -13.6090 C   0  0  0  0  0  0  0  0  0  0  0  0
   11.9960   14.2923  -14.8638 C   0  0  0  0  0  0  0  0  0  0  0  0
   15.3970   17.1426  -14.3347 H   0  0  0  0  0  0  0  0  0  0  0  0
   12.9292   13.8273  -18.1988 N   0  0  0  0  0  0  0  0  0  0  0  0
   11.6538   14.4114  -18.6079 C   0  0  0  0  0  0  0  0  0  0  0  0
   11.5615   14.5079  -20.1324 C   0  0  0  0  0  0  0  0  0  0  0  0
   11.8905   13.1821  -20.8333 C   0  0  0  0  0  0  0  0  0  0  0  0
   13.2507   12.6633  -20.3415 C   0  0  0  0  0  0  0  0  0  0  0  0
   13.3196   12.5661  -18.8184 C   0  0  0  0  0  0  0  0  0  0  0  0
   10.7774   12.1471  -20.6440 C   0  0  0  0  0  0  0  0  0  0  0  0
    9.8271   13.2920  -12.0880 N   0  0  0  0  0  0  0  0  0  0  0  0
   10.1433   13.6508  -13.3667 C   0  0  0  0  0  0  0  0  0  0  0  0
    9.3997   13.3269  -14.2873 O   0  0  0  0  0  0  0  0  0  0  0  0
    8.9720   12.7639  -11.9682 H   0  0  0  0  0  0  0  0  0  0  0  0
   10.3740   13.4996  -11.2691 H   0  0  0  0  0  0  0  0  0  0  0  0
  3  5  1  0  0  0
  4  2  2  0  0  0
  5  6  2  0  0  0
  6  8  1  0  0  0
  7 15  1  0  0  0
  7  1  2  0  0  0
 16 15  1  0  0  0
 16 17  1  0  0  0
 17 18  1  0  0  0
 18 19  1  0  0  0
 18 21  1  0  0  0
 19 20  1  0  0  0
 20 15  1  0  0  0
  9  3  1  0  0  0
  9 10  2  0  0  0
 11 12  2  0  0  0
 12 23  1  0  0  0
 13  8  2  0  0  0
 23 22  1  0  0  0
  4  1  1  0  0  0
  5  2  1  0  0  0
  6  7  1  0  0  0
  8  9  1  0  0  0
 10 11  1  0  0  0
 12 13  1  0  0  0
 23 24  2  0  0  0
  3 14  1  0  0  0
 22 25  1  0  0  0
 22 26  1  0  0  0
M  END
> <minimizedAffinity>
-8.37265

$$$$
CHEMBL3716162


 26 29  0  0  0  0  0  0  0  0999 V2000
   14.8469   15.4151  -17.5847 N   0  0  0  0  0  0  0  0  0  0  0  0
   15.9021   16.8103  -15.9158 N   0  0  0  0  0  0  0  0  0  0  0  0
   14.7734   16.7853  -13.8094 N   0  0  0  0  0  0  0  0  0  0  0  0
   15.7977   16.2542  -17.1327 C   0  0  0  0  0  0  0  0  0  0  0  0
   14.9131   16.3974  -15.1115 C   0  0  0  0  0  0  0  0  0  0  0  0
   13.8774   15.5322  -15.4274 C   0  0  0  0  0  0  0  0  0  0  0  0
   13.8292   15.0518  -16.7574 C   0  0  0  0  0  0  0  0  0  0  0  0
   13.1271   15.3450  -14.2174 C   0  0  0  0  0  0  0  0  0  0  0  0
   13.6861   16.1673  -13.2370 C   0  0  0  0  0  0  0  0  0  0  0  0
   13.1656   16.2634  -11.9410 C   0  0  0  0  0  0  0  0  0  0  0  0
   12.0305   15.4990  -11.6315 C   0  0  0  0  0  0  0  0  0  0  0  0
   11.4543   14.6436  -12.5753 C   0  0  0  0  0  0  0  0  0  0  0  0
   12.0192   14.5491  -13.8571 C   0  0  0  0  0  0  0  0  0  0  0  0
   15.4006   17.4262  -13.3484 H   0  0  0  0  0  0  0  0  0  0  0  0
   12.8304   14.2229  -17.2401 N   0  0  0  0  0  0  0  0  0  0  0  0
   12.9115   12.7888  -16.9711 C   0  0  0  0  0  0  0  0  0  0  0  0
   11.9468   12.3877  -15.8529 C   0  0  0  0  0  0  0  0  0  0  0  0
   10.5173   12.8950  -16.0902 C   0  0  0  0  0  0  0  0  0  0  0  0
   10.5448   14.4092  -16.3508 C   0  0  0  0  0  0  0  0  0  0  0  0
   11.5068   14.7880  -17.4756 C   0  0  0  0  0  0  0  0  0  0  0  0
    9.8221   12.1294  -17.2202 C   0  0  0  0  0  0  0  0  0  0  0  0
   10.2002   13.0168  -11.2171 N   0  0  0  0  0  0  0  0  0  0  0  0
   10.2334   13.8253  -12.3168 C   0  0  0  0  0  0  0  0  0  0  0  0
    9.2603   13.8726  -13.0625 O   0  0  0  0  0  0  0  0  0  0  0  0
    9.3496   12.4870  -11.0750 H   0  0  0  0  0  0  0  0  0  0  0  0
   10.9470   12.9007  -10.5527 H   0  0  0  0  0  0  0  0  0  0  0  0
  3  5  1  0  0  0
  4  2  2  0  0  0
  5  6  2  0  0  0
  6  8  1  0  0  0
  7 15  1  0  0  0
  7  1  2  0  0  0
 16 15  1  0  0  0
 16 17  1  0  0  0
 17 18  1  0  0  0
 18 19  1  0  0  0
 18 21  1  0  0  0
 19 20  1  0  0  0
 20 15  1  0  0  0
  9  3  1  0  0  0
  9 10  2  0  0  0
 11 12  2  0  0  0
 12 23  1  0  0  0
 13  8  2  0  0  0
 23 22  1  0  0  0
  4  1  1  0  0  0
  5  2  1  0  0  0
  6  7  1  0  0  0
  8  9  1  0  0  0
 10 11  1  0  0  0
 12 13  1  0  0  0
 23 24  2  0  0  0
  3 14  1  0  0  0
 22 25  1  0  0  0
 22 26  1  0  0  0
M  END
> <minimizedAffinity>
-8.22131

$$$$
CHEMBL3716162


 26 29  0  0  0  0  0  0  0  0999 V2000
   13.9752   15.4290  -16.0676 N   0  0  0  0  0  0  0  0  0  0  0  0
   15.1535   14.6342  -18.0234 N   0  0  0  0  0  0  0  0  0  0  0  0
   13.7901   13.3202  -19.4814 N   0  0  0  0  0  0  0  0  0  0  0  0
   15.0497   15.3130  -16.8703 C   0  0  0  0  0  0  0  0  0  0  0  0
   13.9876   14.0608  -18.3509 C   0  0  0  0  0  0  0  0  0  0  0  0
   12.8000   14.1016  -17.6375 C   0  0  0  0  0  0  0  0  0  0  0  0
   12.8189   14.7953  -16.4044 C   0  0  0  0  0  0  0  0  0  0  0  0
   11.8291   13.4041  -18.4332 C   0  0  0  0  0  0  0  0  0  0  0  0
   12.4839   12.8962  -19.5571 C   0  0  0  0  0  0  0  0  0  0  0  0
   11.8362   12.1202  -20.5256 C   0  0  0  0  0  0  0  0  0  0  0  0
   10.4727   11.8453  -20.3418 C   0  0  0  0  0  0  0  0  0  0  0  0
    9.7728   12.3551  -19.2442 C   0  0  0  0  0  0  0  0  0  0  0  0
   10.4462   13.1544  -18.3068 C   0  0  0  0  0  0  0  0  0  0  0  0
   14.5129   13.1347  -20.1595 H   0  0  0  0  0  0  0  0  0  0  0  0
   11.7293   14.8821  -15.5541 N   0  0  0  0  0  0  0  0  0  0  0  0
   10.8277   13.7375  -15.4424 C   0  0  0  0  0  0  0  0  0  0  0  0
   11.0835   12.9654  -14.1462 C   0  0  0  0  0  0  0  0  0  0  0  0
   11.0937   13.8712  -12.9065 C   0  0  0  0  0  0  0  0  0  0  0  0
   12.0782   15.0307  -13.1239 C   0  0  0  0  0  0  0  0  0  0  0  0
   11.8008   15.7939  -14.4181 C   0  0  0  0  0  0  0  0  0  0  0  0
    9.6884   14.3681  -12.5536 C   0  0  0  0  0  0  0  0  0  0  0  0
    7.8329   10.8385  -19.2603 N   0  0  0  0  0  0  0  0  0  0  0  0
    8.3307   12.0782  -18.9787 C   0  0  0  0  0  0  0  0  0  0  0  0
    7.5902   12.9341  -18.5049 O   0  0  0  0  0  0  0  0  0  0  0  0
    6.8526   10.6913  -19.0559 H   0  0  0  0  0  0  0  0  0  0  0  0
    8.3535   10.0747  -19.6579 H   0  0  0  0  0  0  0  0  0  0  0  0
  3  5  1  0  0  0
  4  2  2  0  0  0
  5  6  2  0  0  0
  6  8  1  0  0  0
  7 15  1  0  0  0
  7  1  2  0  0  0
 16 15  1  0  0  0
 16 17  1  0  0  0
 17 18  1  0  0  0
 18 19  1  0  0  0
 18 21  1  0  0  0
 19 20  1  0  0  0
 20 15  1  0  0  0
  9  3  1  0  0  0
  9 10  2  0  0  0
 11 12  2  0  0  0
 12 23  1  0  0  0
 13  8  2  0  0  0
 23 22  1  0  0  0
  4  1  1  0  0  0
  5  2  1  0  0  0
  6  7  1  0  0  0
  8  9  1  0  0  0
 10 11  1  0  0  0
 12 13  1  0  0  0
 23 24  2  0  0  0
  3 14  1  0  0  0
 22 25  1  0  0  0
 22 26  1  0  0  0
M  END
> <minimizedAffinity>
-8.00859

$$$$
CHEMBL3716162


 26 29  0  0  0  0  0  0  0  0999 V2000
   14.5761   14.6318  -18.8277 N   0  0  0  0  0  0  0  0  0  0  0  0
   14.5932   14.6989  -16.4110 N   0  0  0  0  0  0  0  0  0  0  0  0
   12.5026   14.0810  -15.4317 N   0  0  0  0  0  0  0  0  0  0  0  0
   15.1511   14.8221  -17.6254 C   0  0  0  0  0  0  0  0  0  0  0  0
   13.3159   14.3050  -16.5059 C   0  0  0  0  0  0  0  0  0  0  0  0
   12.5952   14.0583  -17.6638 C   0  0  0  0  0  0  0  0  0  0  0  0
   13.2636   14.2779  -18.8914 C   0  0  0  0  0  0  0  0  0  0  0  0
   11.3043   13.5919  -17.2417 C   0  0  0  0  0  0  0  0  0  0  0  0
   11.2633   13.6530  -15.8473 C   0  0  0  0  0  0  0  0  0  0  0  0
   10.1260   13.3101  -15.1065 C   0  0  0  0  0  0  0  0  0  0  0  0
    8.9853   12.8949  -15.8101 C   0  0  0  0  0  0  0  0  0  0  0  0
    8.9912   12.7951  -17.2045 C   0  0  0  0  0  0  0  0  0  0  0  0
   10.1581   13.1187  -17.9149 C   0  0  0  0  0  0  0  0  0  0  0  0
   12.7959   14.2052  -14.4750 H   0  0  0  0  0  0  0  0  0  0  0  0
   12.6652   14.1252  -20.1309 N   0  0  0  0  0  0  0  0  0  0  0  0
   12.7147   15.2348  -21.0805 C   0  0  0  0  0  0  0  0  0  0  0  0
   13.7631   14.9786  -22.1654 C   0  0  0  0  0  0  0  0  0  0  0  0
   13.6101   13.6016  -22.8269 C   0  0  0  0  0  0  0  0  0  0  0  0
   13.5806   12.5108  -21.7450 C   0  0  0  0  0  0  0  0  0  0  0  0
   12.5222   12.7804  -20.6766 C   0  0  0  0  0  0  0  0  0  0  0  0
   12.3802   13.5416  -23.7379 C   0  0  0  0  0  0  0  0  0  0  0  0
    7.8746   11.2436  -18.7569 N   0  0  0  0  0  0  0  0  0  0  0  0
    7.8048   12.3855  -18.0118 C   0  0  0  0  0  0  0  0  0  0  0  0
    6.7700   13.0447  -18.0105 O   0  0  0  0  0  0  0  0  0  0  0  0
    7.0444   10.9982  -19.2812 H   0  0  0  0  0  0  0  0  0  0  0  0
    8.6774   10.6415  -18.8323 H   0  0  0  0  0  0  0  0  0  0  0  0
  3  5  1  0  0  0
  4  2  2  0  0  0
  5  6  2  0  0  0
  6  8  1  0  0  0
  7 15  1  0  0  0
  7  1  2  0  0  0
 16 15  1  0  0  0
 16 17  1  0  0  0
 17 18  1  0  0  0
 18 19  1  0  0  0
 18 21  1  0  0  0
 19 20  1  0  0  0
 20 15  1  0  0  0
  9  3  1  0  0  0
  9 10  2  0  0  0
 11 12  2  0  0  0
 12 23  1  0  0  0
 13  8  2  0  0  0
 23 22  1  0  0  0
  4  1  1  0  0  0
  5  2  1  0  0  0
  6  7  1  0  0  0
  8  9  1  0  0  0
 10 11  1  0  0  0
 12 13  1  0  0  0
 23 24  2  0  0  0
  3 14  1  0  0  0
 22 25  1  0  0  0
 22 26  1  0  0  0
M  END
> <minimizedAffinity>
-7.81043

$$$$
CHEMBL3716162


 26 29  0  0  0  0  0  0  0  0999 V2000
   16.2317   17.4548  -15.0306 N   0  0  0  0  0  0  0  0  0  0  0  0
   14.5754   16.4669  -13.5726 N   0  0  0  0  0  0  0  0  0  0  0  0
   13.1226   14.9341  -14.6914 N   0  0  0  0  0  0  0  0  0  0  0  0
   15.6276   17.2542  -13.8443 C   0  0  0  0  0  0  0  0  0  0  0  0
   14.1640   15.8176  -14.6703 C   0  0  0  0  0  0  0  0  0  0  0  0
   14.6897   15.9102  -15.9493 C   0  0  0  0  0  0  0  0  0  0  0  0
   15.7601   16.8165  -16.1361 C   0  0  0  0  0  0  0  0  0  0  0  0
   13.9594   14.9704  -16.7529 C   0  0  0  0  0  0  0  0  0  0  0  0
   12.9653   14.4055  -15.9514 C   0  0  0  0  0  0  0  0  0  0  0  0
   12.0380   13.4756  -16.4363 C   0  0  0  0  0  0  0  0  0  0  0  0
   12.1208   13.1103  -17.7884 C   0  0  0  0  0  0  0  0  0  0  0  0
   13.1162   13.6324  -18.6197 C   0  0  0  0  0  0  0  0  0  0  0  0
   14.0486   14.5407  -18.0938 C   0  0  0  0  0  0  0  0  0  0  0  0
   12.5687   14.7059  -13.8803 H   0  0  0  0  0  0  0  0  0  0  0  0
   16.3575   17.0590  -17.3617 N   0  0  0  0  0  0  0  0  0  0  0  0
   16.4784   18.4387  -17.8278 C   0  0  0  0  0  0  0  0  0  0  0  0
   17.9083   18.9530  -17.6463 C   0  0  0  0  0  0  0  0  0  0  0  0
   18.9611   18.0039  -18.2361 C   0  0  0  0  0  0  0  0  0  0  0  0
   18.7515   16.5891  -17.6743 C   0  0  0  0  0  0  0  0  0  0  0  0
   17.3209   16.0908  -17.8729 C   0  0  0  0  0  0  0  0  0  0  0  0
   18.9491   18.0222  -19.7677 C   0  0  0  0  0  0  0  0  0  0  0  0
   13.8738   12.1502  -20.4344 N   0  0  0  0  0  0  0  0  0  0  0  0
   13.2418   13.3043  -20.0701 C   0  0  0  0  0  0  0  0  0  0  0  0
   12.7815   14.0413  -20.9363 O   0  0  0  0  0  0  0  0  0  0  0  0
   13.9281   11.9623  -21.4275 H   0  0  0  0  0  0  0  0  0  0  0  0
   14.2919   11.4870  -19.8035 H   0  0  0  0  0  0  0  0  0  0  0  0
  3  5  1  0  0  0
  4  2  2  0  0  0
  5  6  2  0  0  0
  6  8  1  0  0  0
  7 15  1  0  0  0
  7  1  2  0  0  0
 16 15  1  0  0  0
 16 17  1  0  0  0
 17 18  1  0  0  0
 18 19  1  0  0  0
 18 21  1  0  0  0
 19 20  1  0  0  0
 20 15  1  0  0  0
  9  3  1  0  0  0
  9 10  2  0  0  0
 11 12  2  0  0  0
 12 23  1  0  0  0
 13  8  2  0  0  0
 23 22  1  0  0  0
  4  1  1  0  0  0
  5  2  1  0  0  0
  6  7  1  0  0  0
  8  9  1  0  0  0
 10 11  1  0  0  0
 12 13  1  0  0  0
 23 24  2  0  0  0
  3 14  1  0  0  0
 22 25  1  0  0  0
 22 26  1  0  0  0
M  END
> <minimizedAffinity>
-7.65218

$$$$
CHEMBL3715037


 27 30  0  0  0  0  0  0  0  0999 V2000
    9.4778   13.6235  -13.6509 N   0  0  0  0  0  0  0  0  0  0  0  0
   10.5191   14.7341  -11.7732 N   0  0  0  0  0  0  0  0  0  0  0  0
   12.5959   15.7828  -12.3242 N   0  0  0  0  0  0  0  0  0  0  0  0
    9.5603   14.0023  -12.3614 C   0  0  0  0  0  0  0  0  0  0  0  0
   11.4815   15.0605  -12.6465 C   0  0  0  0  0  0  0  0  0  0  0  0
   11.5367   14.7402  -13.9941 C   0  0  0  0  0  0  0  0  0  0  0  0
   10.4484   14.0074  -14.5224 C   0  0  0  0  0  0  0  0  0  0  0  0
   12.7891   15.2480  -14.4742 C   0  0  0  0  0  0  0  0  0  0  0  0
   13.4173   15.9128  -13.4196 C   0  0  0  0  0  0  0  0  0  0  0  0
   14.6602   16.5427  -13.5554 C   0  0  0  0  0  0  0  0  0  0  0  0
   15.2818   16.4912  -14.8111 C   0  0  0  0  0  0  0  0  0  0  0  0
   14.6977   15.8194  -15.8894 C   0  0  0  0  0  0  0  0  0  0  0  0
   13.4646   15.1827  -15.7105 C   0  0  0  0  0  0  0  0  0  0  0  0
   12.7846   16.1369  -11.3988 H   0  0  0  0  0  0  0  0  0  0  0  0
   10.3163   13.6579  -15.8585 N   0  0  0  0  0  0  0  0  0  0  0  0
   10.1928   14.7204  -16.8464 C   0  0  0  0  0  0  0  0  0  0  0  0
    8.9496   14.5421  -17.7040 C   0  0  0  0  0  0  0  0  0  0  0  0
    8.9480   13.1624  -18.3420 C   0  0  0  0  0  0  0  0  0  0  0  0
    8.9693   12.0856  -17.2647 C   0  0  0  0  0  0  0  0  0  0  0  0
   10.0505   12.2537  -16.1831 C   0  0  0  0  0  0  0  0  0  0  0  0
   11.3624   11.4915  -16.4686 C   0  0  0  0  0  0  0  0  0  0  0  0
   11.9646   10.6864  -15.3291 C   0  0  0  0  0  0  0  0  0  0  0  0
   15.9042   16.9783  -17.6974 N   0  0  0  0  0  0  0  0  0  0  0  0
   15.4165   15.8013  -17.1970 C   0  0  0  0  0  0  0  0  0  0  0  0
   15.5875   14.7580  -17.8183 O   0  0  0  0  0  0  0  0  0  0  0  0
   16.3893   16.9297  -18.5840 H   0  0  0  0  0  0  0  0  0  0  0  0
   15.8323   17.8799  -17.2550 H   0  0  0  0  0  0  0  0  0  0  0  0
  3  5  1  0  0  0
  4  2  2  0  0  0
  5  6  2  0  0  0
  6  8  1  0  0  0
  7 15  1  0  0  0
  7  1  2  0  0  0
 16 15  1  0  0  0
 16 17  1  0  0  0
 17 18  1  0  0  0
 18 19  1  0  0  0
 19 20  1  0  0  0
 20 21  1  0  0  0
 20 15  1  0  0  0
 21 22  1  0  0  0
  9  3  1  0  0  0
  9 10  2  0  0  0
 11 12  2  0  0  0
 12 24  1  0  0  0
 13  8  2  0  0  0
 24 23  1  0  0  0
  4  1  1  0  0  0
  5  2  1  0  0  0
  6  7  1  0  0  0
  8  9  1  0  0  0
 10 11  1  0  0  0
 12 13  1  0  0  0
 24 25  2  0  0  0
  3 14  1  0  0  0
 23 26  1  0  0  0
 23 27  1  0  0  0
M  END
> <minimizedAffinity>
-9.89003

$$$$
CHEMBL3715037


 27 30  0  0  0  0  0  0  0  0999 V2000
    9.7532   13.6001  -13.9160 N   0  0  0  0  0  0  0  0  0  0  0  0
   10.6170   14.5524  -11.8690 N   0  0  0  0  0  0  0  0  0  0  0  0
   12.6535   15.7676  -12.1737 N   0  0  0  0  0  0  0  0  0  0  0  0
    9.7396   13.8385  -12.5908 C   0  0  0  0  0  0  0  0  0  0  0  0
   11.6054   15.0252  -12.6404 C   0  0  0  0  0  0  0  0  0  0  0  0
   11.7560   14.8588  -14.0083 C   0  0  0  0  0  0  0  0  0  0  0  0
   10.7461   14.1302  -14.6790 C   0  0  0  0  0  0  0  0  0  0  0  0
   13.0000   15.4841  -14.3521 C   0  0  0  0  0  0  0  0  0  0  0  0
   13.5259   16.0622  -13.1953 C   0  0  0  0  0  0  0  0  0  0  0  0
   14.7335   16.7703  -13.1850 C   0  0  0  0  0  0  0  0  0  0  0  0
   15.4269   16.8915  -14.3975 C   0  0  0  0  0  0  0  0  0  0  0  0
   14.9468   16.3116  -15.5758 C   0  0  0  0  0  0  0  0  0  0  0  0
   13.7469   15.5925  -15.5435 C   0  0  0  0  0  0  0  0  0  0  0  0
   12.7677   16.0273  -11.2059 H   0  0  0  0  0  0  0  0  0  0  0  0
   10.7112   13.9232  -16.0504 N   0  0  0  0  0  0  0  0  0  0  0  0
   10.0771   14.9299  -16.8897 C   0  0  0  0  0  0  0  0  0  0  0  0
    8.9975   14.3210  -17.7711 C   0  0  0  0  0  0  0  0  0  0  0  0
    9.5733   13.1743  -18.5861 C   0  0  0  0  0  0  0  0  0  0  0  0
   10.1270   12.0984  -17.6607 C   0  0  0  0  0  0  0  0  0  0  0  0
   11.0780   12.5988  -16.5597 C   0  0  0  0  0  0  0  0  0  0  0  0
   12.5745   12.5429  -16.9353 C   0  0  0  0  0  0  0  0  0  0  0  0
   13.0096   13.2912  -18.1843 C   0  0  0  0  0  0  0  0  0  0  0  0
   16.0896   17.7392  -17.2261 N   0  0  0  0  0  0  0  0  0  0  0  0
   15.7379   16.4770  -16.8303 C   0  0  0  0  0  0  0  0  0  0  0  0
   16.0861   15.5098  -17.4988 O   0  0  0  0  0  0  0  0  0  0  0  0
   16.6287   17.8152  -18.0789 H   0  0  0  0  0  0  0  0  0  0  0  0
   15.8693   18.5914  -16.7372 H   0  0  0  0  0  0  0  0  0  0  0  0
  3  5  1  0  0  0
  4  2  2  0  0  0
  5  6  2  0  0  0
  6  8  1  0  0  0
  7 15  1  0  0  0
  7  1  2  0  0  0
 16 15  1  0  0  0
 16 17  1  0  0  0
 17 18  1  0  0  0
 18 19  1  0  0  0
 19 20  1  0  0  0
 20 21  1  0  0  0
 20 15  1  0  0  0
 21 22  1  0  0  0
  9  3  1  0  0  0
  9 10  2  0  0  0
 11 12  2  0  0  0
 12 24  1  0  0  0
 13  8  2  0  0  0
 24 23  1  0  0  0
  4  1  1  0  0  0
  5  2  1  0  0  0
  6  7  1  0  0  0
  8  9  1  0  0  0
 10 11  1  0  0  0
 12 13  1  0  0  0
 24 25  2  0  0  0
  3 14  1  0  0  0
 23 26  1  0  0  0
 23 27  1  0  0  0
M  END
> <minimizedAffinity>
-9.78685

$$$$
CHEMBL3715037


 27 30  0  0  0  0  0  0  0  0999 V2000
   10.0226   13.3598  -13.4053 N   0  0  0  0  0  0  0  0  0  0  0  0
   10.9507   14.7427  -11.6534 N   0  0  0  0  0  0  0  0  0  0  0  0
   12.8806   15.9757  -12.3406 N   0  0  0  0  0  0  0  0  0  0  0  0
   10.0775   13.8556  -12.1547 C   0  0  0  0  0  0  0  0  0  0  0  0
   11.8554   15.1028  -12.5740 C   0  0  0  0  0  0  0  0  0  0  0  0
   11.9294   14.6759  -13.8907 C   0  0  0  0  0  0  0  0  0  0  0  0
   10.9285   13.7778  -14.3292 C   0  0  0  0  0  0  0  0  0  0  0  0
   13.1059   15.2833  -14.4419 C   0  0  0  0  0  0  0  0  0  0  0  0
   13.6654   16.1058  -13.4624 C   0  0  0  0  0  0  0  0  0  0  0  0
   14.8227   16.8628  -13.6806 C   0  0  0  0  0  0  0  0  0  0  0  0
   15.4285   16.7760  -14.9421 C   0  0  0  0  0  0  0  0  0  0  0  0
   14.9133   15.9497  -15.9456 C   0  0  0  0  0  0  0  0  0  0  0  0
   13.7671   15.1909  -15.6841 C   0  0  0  0  0  0  0  0  0  0  0  0
   13.0388   16.4281  -11.4531 H   0  0  0  0  0  0  0  0  0  0  0  0
   10.8203   13.3011  -15.6275 N   0  0  0  0  0  0  0  0  0  0  0  0
   11.7594   12.2822  -16.0748 C   0  0  0  0  0  0  0  0  0  0  0  0
   12.4768   12.7057  -17.3472 C   0  0  0  0  0  0  0  0  0  0  0  0
   11.4649   13.0653  -18.4230 C   0  0  0  0  0  0  0  0  0  0  0  0
   10.5766   14.2078  -17.9476 C   0  0  0  0  0  0  0  0  0  0  0  0
    9.9447   14.0196  -16.5575 C   0  0  0  0  0  0  0  0  0  0  0  0
    8.5298   13.4019  -16.5782 C   0  0  0  0  0  0  0  0  0  0  0  0
    7.7831   13.4107  -17.9016 C   0  0  0  0  0  0  0  0  0  0  0  0
   16.0042   17.0788  -17.8437 N   0  0  0  0  0  0  0  0  0  0  0  0
   15.6109   15.9029  -17.2640 C   0  0  0  0  0  0  0  0  0  0  0  0
   15.8472   14.8384  -17.8249 O   0  0  0  0  0  0  0  0  0  0  0  0
   16.4775   17.0108  -18.7353 H   0  0  0  0  0  0  0  0  0  0  0  0
   15.8742   17.9984  -17.4547 H   0  0  0  0  0  0  0  0  0  0  0  0
  3  5  1  0  0  0
  4  2  2  0  0  0
  5  6  2  0  0  0
  6  8  1  0  0  0
  7 15  1  0  0  0
  7  1  2  0  0  0
 16 15  1  0  0  0
 16 17  1  0  0  0
 17 18  1  0  0  0
 18 19  1  0  0  0
 19 20  1  0  0  0
 20 21  1  0  0  0
 20 15  1  0  0  0
 21 22  1  0  0  0
  9  3  1  0  0  0
  9 10  2  0  0  0
 11 12  2  0  0  0
 12 24  1  0  0  0
 13  8  2  0  0  0
 24 23  1  0  0  0
  4  1  1  0  0  0
  5  2  1  0  0  0
  6  7  1  0  0  0
  8  9  1  0  0  0
 10 11  1  0  0  0
 12 13  1  0  0  0
 24 25  2  0  0  0
  3 14  1  0  0  0
 23 26  1  0  0  0
 23 27  1  0  0  0
M  END
> <minimizedAffinity>
-9.43618

$$$$
CHEMBL3715037


 27 30  0  0  0  0  0  0  0  0999 V2000
   12.2114   13.1821  -18.9665 N   0  0  0  0  0  0  0  0  0  0  0  0
   14.2115   14.5020  -19.2837 N   0  0  0  0  0  0  0  0  0  0  0  0
   14.9539   15.5931  -17.2899 N   0  0  0  0  0  0  0  0  0  0  0  0
   13.2160   13.7026  -19.6966 C   0  0  0  0  0  0  0  0  0  0  0  0
   14.0955   14.7831  -17.9786 C   0  0  0  0  0  0  0  0  0  0  0  0
   13.1194   14.3290  -17.1054 C   0  0  0  0  0  0  0  0  0  0  0  0
   12.1456   13.4507  -17.6352 C   0  0  0  0  0  0  0  0  0  0  0  0
   13.3836   14.9633  -15.8465 C   0  0  0  0  0  0  0  0  0  0  0  0
   14.5449   15.7259  -15.9835 C   0  0  0  0  0  0  0  0  0  0  0  0
   15.0930   16.4659  -14.9291 C   0  0  0  0  0  0  0  0  0  0  0  0
   14.4321   16.4252  -13.6933 C   0  0  0  0  0  0  0  0  0  0  0  0
   13.2555   15.6905  -13.5169 C   0  0  0  0  0  0  0  0  0  0  0  0
   12.7249   14.9804  -14.5996 C   0  0  0  0  0  0  0  0  0  0  0  0
   15.7535   16.0443  -17.7075 H   0  0  0  0  0  0  0  0  0  0  0  0
   11.1379   12.8583  -16.8880 N   0  0  0  0  0  0  0  0  0  0  0  0
    9.7693   12.9384  -17.3787 C   0  0  0  0  0  0  0  0  0  0  0  0
    8.8360   13.5285  -16.3330 C   0  0  0  0  0  0  0  0  0  0  0  0
    8.9358   12.7388  -15.0379 C   0  0  0  0  0  0  0  0  0  0  0  0
   10.3640   12.7755  -14.5092 C   0  0  0  0  0  0  0  0  0  0  0  0
   11.4562   12.4105  -15.5293 C   0  0  0  0  0  0  0  0  0  0  0  0
   11.8690   10.9227  -15.5172 C   0  0  0  0  0  0  0  0  0  0  0  0
   13.3544   10.6094  -15.5841 C   0  0  0  0  0  0  0  0  0  0  0  0
   11.3271   15.2100  -12.0616 N   0  0  0  0  0  0  0  0  0  0  0  0
   12.6023   15.6944  -12.1752 C   0  0  0  0  0  0  0  0  0  0  0  0
   13.1876   16.1079  -11.1803 O   0  0  0  0  0  0  0  0  0  0  0  0
   10.9155   15.2239  -11.1374 H   0  0  0  0  0  0  0  0  0  0  0  0
   10.7725   14.8323  -12.8124 H   0  0  0  0  0  0  0  0  0  0  0  0
  3  5  1  0  0  0
  4  2  2  0  0  0
  5  6  2  0  0  0
  6  8  1  0  0  0
  7 15  1  0  0  0
  7  1  2  0  0  0
 16 15  1  0  0  0
 16 17  1  0  0  0
 17 18  1  0  0  0
 18 19  1  0  0  0
 19 20  1  0  0  0
 20 21  1  0  0  0
 20 15  1  0  0  0
 21 22  1  0  0  0
  9  3  1  0  0  0
  9 10  2  0  0  0
 11 12  2  0  0  0
 12 24  1  0  0  0
 13  8  2  0  0  0
 24 23  1  0  0  0
  4  1  1  0  0  0
  5  2  1  0  0  0
  6  7  1  0  0  0
  8  9  1  0  0  0
 10 11  1  0  0  0
 12 13  1  0  0  0
 24 25  2  0  0  0
  3 14  1  0  0  0
 23 26  1  0  0  0
 23 27  1  0  0  0
M  END
> <minimizedAffinity>
-8.66569

$$$$
CHEMBL3715037


 27 30  0  0  0  0  0  0  0  0999 V2000
   14.0360   14.9208  -18.1167 N   0  0  0  0  0  0  0  0  0  0  0  0
   15.6560   16.2351  -16.8956 N   0  0  0  0  0  0  0  0  0  0  0  0
   15.1502   16.4401  -14.5677 N   0  0  0  0  0  0  0  0  0  0  0  0
   15.1451   15.6758  -18.0032 C   0  0  0  0  0  0  0  0  0  0  0  0
   14.8890   15.9785  -15.8272 C   0  0  0  0  0  0  0  0  0  0  0  0
   13.7244   15.2276  -15.7902 C   0  0  0  0  0  0  0  0  0  0  0  0
   13.3023   14.6419  -17.0064 C   0  0  0  0  0  0  0  0  0  0  0  0
   13.2393   15.3093  -14.4431 C   0  0  0  0  0  0  0  0  0  0  0  0
   14.1585   16.0504  -13.6982 C   0  0  0  0  0  0  0  0  0  0  0  0
   13.9938   16.3067  -12.3318 C   0  0  0  0  0  0  0  0  0  0  0  0
   12.8513   15.7883  -11.7058 C   0  0  0  0  0  0  0  0  0  0  0  0
   11.8951   15.0576  -12.4178 C   0  0  0  0  0  0  0  0  0  0  0  0
   12.0825   14.8397  -13.7872 C   0  0  0  0  0  0  0  0  0  0  0  0
   15.9491   17.0103  -14.3355 H   0  0  0  0  0  0  0  0  0  0  0  0
   12.1961   13.8141  -17.1329 N   0  0  0  0  0  0  0  0  0  0  0  0
   11.3820   13.9200  -18.3354 C   0  0  0  0  0  0  0  0  0  0  0  0
    9.9194   14.1651  -17.9984 C   0  0  0  0  0  0  0  0  0  0  0  0
    9.4123   13.0860  -17.0555 C   0  0  0  0  0  0  0  0  0  0  0  0
   10.2276   13.0875  -15.7686 C   0  0  0  0  0  0  0  0  0  0  0  0
   11.7547   13.0643  -15.9535 C   0  0  0  0  0  0  0  0  0  0  0  0
   12.3792   11.6525  -15.9269 C   0  0  0  0  0  0  0  0  0  0  0  0
   11.5216   10.5194  -15.3889 C   0  0  0  0  0  0  0  0  0  0  0  0
   10.8091   14.2749  -10.3500 N   0  0  0  0  0  0  0  0  0  0  0  0
   10.7010   14.5383  -11.6889 C   0  0  0  0  0  0  0  0  0  0  0  0
    9.6314   14.3578  -12.2607 O   0  0  0  0  0  0  0  0  0  0  0  0
    9.9799   13.9275   -9.8860 H   0  0  0  0  0  0  0  0  0  0  0  0
   11.6348   14.4083   -9.7894 H   0  0  0  0  0  0  0  0  0  0  0  0
  3  5  1  0  0  0
  4  2  2  0  0  0
  5  6  2  0  0  0
  6  8  1  0  0  0
  7 15  1  0  0  0
  7  1  2  0  0  0
 16 15  1  0  0  0
 16 17  1  0  0  0
 17 18  1  0  0  0
 18 19  1  0  0  0
 19 20  1  0  0  0
 20 21  1  0  0  0
 20 15  1  0  0  0
 21 22  1  0  0  0
  9  3  1  0  0  0
  9 10  2  0  0  0
 11 12  2  0  0  0
 12 24  1  0  0  0
 13  8  2  0  0  0
 24 23  1  0  0  0
  4  1  1  0  0  0
  5  2  1  0  0  0
  6  7  1  0  0  0
  8  9  1  0  0  0
 10 11  1  0  0  0
 12 13  1  0  0  0
 24 25  2  0  0  0
  3 14  1  0  0  0
 23 26  1  0  0  0
 23 27  1  0  0  0
M  END
> <minimizedAffinity>
-8.63174

$$$$
CHEMBL3715037


 27 30  0  0  0  0  0  0  0  0999 V2000
   12.7132   13.8019  -18.9026 N   0  0  0  0  0  0  0  0  0  0  0  0
   14.6777   15.2048  -19.0277 N   0  0  0  0  0  0  0  0  0  0  0  0
   15.3077   16.1446  -16.9214 N   0  0  0  0  0  0  0  0  0  0  0  0
   13.7260   14.4132  -19.5457 C   0  0  0  0  0  0  0  0  0  0  0  0
   14.5036   15.3702  -17.7094 C   0  0  0  0  0  0  0  0  0  0  0  0
   13.5117   14.8137  -16.9170 C   0  0  0  0  0  0  0  0  0  0  0  0
   12.5887   13.9541  -17.5571 C   0  0  0  0  0  0  0  0  0  0  0  0
   13.7071   15.3463  -15.5998 C   0  0  0  0  0  0  0  0  0  0  0  0
   14.8460   16.1532  -15.6259 C   0  0  0  0  0  0  0  0  0  0  0  0
   15.3290   16.8174  -14.4921 C   0  0  0  0  0  0  0  0  0  0  0  0
   14.6242   16.6513  -13.2915 C   0  0  0  0  0  0  0  0  0  0  0  0
   13.4675   15.8685  -13.2245 C   0  0  0  0  0  0  0  0  0  0  0  0
   13.0022   15.2371  -14.3833 C   0  0  0  0  0  0  0  0  0  0  0  0
   16.1065   16.6541  -17.2674 H   0  0  0  0  0  0  0  0  0  0  0  0
   11.5746   13.2696  -16.9031 N   0  0  0  0  0  0  0  0  0  0  0  0
   11.8878   12.5887  -15.6548 C   0  0  0  0  0  0  0  0  0  0  0  0
   11.4921   11.1211  -15.7060 C   0  0  0  0  0  0  0  0  0  0  0  0
   10.0247   10.9881  -16.0796 C   0  0  0  0  0  0  0  0  0  0  0  0
    9.7700   11.6210  -17.4416 C   0  0  0  0  0  0  0  0  0  0  0  0
   10.3154   13.0485  -17.6196 C   0  0  0  0  0  0  0  0  0  0  0  0
    9.2953   14.1647  -17.3076 C   0  0  0  0  0  0  0  0  0  0  0  0
    7.8338   13.8801  -17.6110 C   0  0  0  0  0  0  0  0  0  0  0  0
   11.5730   15.0668  -11.8698 N   0  0  0  0  0  0  0  0  0  0  0  0
   12.7650   15.7381  -11.9145 C   0  0  0  0  0  0  0  0  0  0  0  0
   13.2394   16.2062  -10.8852 O   0  0  0  0  0  0  0  0  0  0  0  0
   11.1253   14.9939  -10.9653 H   0  0  0  0  0  0  0  0  0  0  0  0
   11.1133   14.6320  -12.6530 H   0  0  0  0  0  0  0  0  0  0  0  0
  3  5  1  0  0  0
  4  2  2  0  0  0
  5  6  2  0  0  0
  6  8  1  0  0  0
  7 15  1  0  0  0
  7  1  2  0  0  0
 16 15  1  0  0  0
 16 17  1  0  0  0
 17 18  1  0  0  0
 18 19  1  0  0  0
 19 20  1  0  0  0
 20 21  1  0  0  0
 20 15  1  0  0  0
 21 22  1  0  0  0
  9  3  1  0  0  0
  9 10  2  0  0  0
 11 12  2  0  0  0
 12 24  1  0  0  0
 13  8  2  0  0  0
 24 23  1  0  0  0
  4  1  1  0  0  0
  5  2  1  0  0  0
  6  7  1  0  0  0
  8  9  1  0  0  0
 10 11  1  0  0  0
 12 13  1  0  0  0
 24 25  2  0  0  0
  3 14  1  0  0  0
 23 26  1  0  0  0
 23 27  1  0  0  0
M  END
> <minimizedAffinity>
-8.52966

$$$$
CHEMBL3715037


 27 30  0  0  0  0  0  0  0  0999 V2000
   14.9051   16.0776  -17.0763 N   0  0  0  0  0  0  0  0  0  0  0  0
   15.9708   17.2167  -15.2298 N   0  0  0  0  0  0  0  0  0  0  0  0
   14.9187   16.7994  -13.1236 N   0  0  0  0  0  0  0  0  0  0  0  0
   15.8235   16.8926  -16.5235 C   0  0  0  0  0  0  0  0  0  0  0  0
   15.0304   16.6319  -14.4753 C   0  0  0  0  0  0  0  0  0  0  0  0
   14.0237   15.7788  -14.8998 C   0  0  0  0  0  0  0  0  0  0  0  0
   13.9907   15.4644  -16.2784 C   0  0  0  0  0  0  0  0  0  0  0  0
   13.2360   15.4818  -13.7386 C   0  0  0  0  0  0  0  0  0  0  0  0
   13.8294   16.1110  -12.6428 C   0  0  0  0  0  0  0  0  0  0  0  0
   13.3171   16.0108  -11.3438 C   0  0  0  0  0  0  0  0  0  0  0  0
   12.1595   15.2418  -11.1587 C   0  0  0  0  0  0  0  0  0  0  0  0
   11.5213   14.6107  -12.2309 C   0  0  0  0  0  0  0  0  0  0  0  0
   12.0500   14.7511  -13.5188 C   0  0  0  0  0  0  0  0  0  0  0  0
   15.5414   17.3755  -12.5781 H   0  0  0  0  0  0  0  0  0  0  0  0
   13.0899   14.5827  -16.8578 N   0  0  0  0  0  0  0  0  0  0  0  0
   13.5059   13.2037  -17.0714 C   0  0  0  0  0  0  0  0  0  0  0  0
   13.3251   12.7855  -18.5224 C   0  0  0  0  0  0  0  0  0  0  0  0
   11.8897   13.0263  -18.9609 C   0  0  0  0  0  0  0  0  0  0  0  0
   11.5378   14.5017  -18.8197 C   0  0  0  0  0  0  0  0  0  0  0  0
   11.8709   15.1333  -17.4570 C   0  0  0  0  0  0  0  0  0  0  0  0
   10.7029   15.1249  -16.4473 C   0  0  0  0  0  0  0  0  0  0  0  0
    9.7588   13.9347  -16.4812 C   0  0  0  0  0  0  0  0  0  0  0  0
    9.4327   13.5536  -12.9974 N   0  0  0  0  0  0  0  0  0  0  0  0
   10.2907   13.8106  -11.9624 C   0  0  0  0  0  0  0  0  0  0  0  0
   10.0442   13.3726  -10.8439 O   0  0  0  0  0  0  0  0  0  0  0  0
    8.6101   13.0054  -12.7815 H   0  0  0  0  0  0  0  0  0  0  0  0
    9.5563   13.8513  -13.9513 H   0  0  0  0  0  0  0  0  0  0  0  0
  3  5  1  0  0  0
  4  2  2  0  0  0
  5  6  2  0  0  0
  6  8  1  0  0  0
  7 15  1  0  0  0
  7  1  2  0  0  0
 16 15  1  0  0  0
 16 17  1  0  0  0
 17 18  1  0  0  0
 18 19  1  0  0  0
 19 20  1  0  0  0
 20 21  1  0  0  0
 20 15  1  0  0  0
 21 22  1  0  0  0
  9  3  1  0  0  0
  9 10  2  0  0  0
 11 12  2  0  0  0
 12 24  1  0  0  0
 13  8  2  0  0  0
 24 23  1  0  0  0
  4  1  1  0  0  0
  5  2  1  0  0  0
  6  7  1  0  0  0
  8  9  1  0  0  0
 10 11  1  0  0  0
 12 13  1  0  0  0
 24 25  2  0  0  0
  3 14  1  0  0  0
 23 26  1  0  0  0
 23 27  1  0  0  0
M  END
> <minimizedAffinity>
-8.37522

$$$$
CHEMBL3715037


 27 30  0  0  0  0  0  0  0  0999 V2000
   14.1091   14.4284  -16.4336 N   0  0  0  0  0  0  0  0  0  0  0  0
   15.0612   15.0358  -18.5707 N   0  0  0  0  0  0  0  0  0  0  0  0
   13.7797   14.2609  -20.4346 N   0  0  0  0  0  0  0  0  0  0  0  0
   15.0380   14.9907  -17.2299 C   0  0  0  0  0  0  0  0  0  0  0  0
   14.0060   14.3967  -19.0938 C   0  0  0  0  0  0  0  0  0  0  0  0
   12.9786   13.7694  -18.4063 C   0  0  0  0  0  0  0  0  0  0  0  0
   13.0270   13.8249  -16.9938 C   0  0  0  0  0  0  0  0  0  0  0  0
   12.1363   13.1743  -19.4029 C   0  0  0  0  0  0  0  0  0  0  0  0
   12.6452   13.5159  -20.6572 C   0  0  0  0  0  0  0  0  0  0  0  0
   12.0458   13.1063  -21.8542 C   0  0  0  0  0  0  0  0  0  0  0  0
   10.8874   12.3213  -21.7662 C   0  0  0  0  0  0  0  0  0  0  0  0
   10.3547   11.9394  -20.5310 C   0  0  0  0  0  0  0  0  0  0  0  0
   10.9934   12.3494  -19.3556 C   0  0  0  0  0  0  0  0  0  0  0  0
   14.3883   14.6372  -21.1454 H   0  0  0  0  0  0  0  0  0  0  0  0
   12.0511   13.3031  -16.1571 N   0  0  0  0  0  0  0  0  0  0  0  0
   12.1034   11.8860  -15.8266 C   0  0  0  0  0  0  0  0  0  0  0  0
   10.7911   11.1893  -16.1514 C   0  0  0  0  0  0  0  0  0  0  0  0
    9.6379   11.8977  -15.4594 C   0  0  0  0  0  0  0  0  0  0  0  0
    9.5599   13.3477  -15.9199 C   0  0  0  0  0  0  0  0  0  0  0  0
   10.8812   14.1333  -15.8569 C   0  0  0  0  0  0  0  0  0  0  0  0
   11.0869   14.9321  -14.5518 C   0  0  0  0  0  0  0  0  0  0  0  0
   10.7271   14.2422  -13.2465 C   0  0  0  0  0  0  0  0  0  0  0  0
    8.2920   11.1725  -19.4245 N   0  0  0  0  0  0  0  0  0  0  0  0
    9.1211   11.0999  -20.5112 C   0  0  0  0  0  0  0  0  0  0  0  0
    8.8337   10.3635  -21.4485 O   0  0  0  0  0  0  0  0  0  0  0  0
    7.4628   10.5930  -19.4451 H   0  0  0  0  0  0  0  0  0  0  0  0
    8.4302   11.7587  -18.6176 H   0  0  0  0  0  0  0  0  0  0  0  0
  3  5  1  0  0  0
  4  2  2  0  0  0
  5  6  2  0  0  0
  6  8  1  0  0  0
  7 15  1  0  0  0
  7  1  2  0  0  0
 16 15  1  0  0  0
 16 17  1  0  0  0
 17 18  1  0  0  0
 18 19  1  0  0  0
 19 20  1  0  0  0
 20 21  1  0  0  0
 20 15  1  0  0  0
 21 22  1  0  0  0
  9  3  1  0  0  0
  9 10  2  0  0  0
 11 12  2  0  0  0
 12 24  1  0  0  0
 13  8  2  0  0  0
 24 23  1  0  0  0
  4  1  1  0  0  0
  5  2  1  0  0  0
  6  7  1  0  0  0
  8  9  1  0  0  0
 10 11  1  0  0  0
 12 13  1  0  0  0
 24 25  2  0  0  0
  3 14  1  0  0  0
 23 26  1  0  0  0
 23 27  1  0  0  0
M  END
> <minimizedAffinity>
-8.17698

$$$$
CHEMBL3715037


 27 30  0  0  0  0  0  0  0  0999 V2000
    9.9884   12.5049  -17.5297 N   0  0  0  0  0  0  0  0  0  0  0  0
    8.9814   12.4393  -15.3331 N   0  0  0  0  0  0  0  0  0  0  0  0
   10.1474   13.7586  -13.7155 N   0  0  0  0  0  0  0  0  0  0  0  0
    9.0746   12.0991  -16.6278 C   0  0  0  0  0  0  0  0  0  0  0  0
    9.9746   13.2661  -14.9784 C   0  0  0  0  0  0  0  0  0  0  0  0
   10.9840   13.7623  -15.7885 C   0  0  0  0  0  0  0  0  0  0  0  0
   10.9586   13.3786  -17.1496 C   0  0  0  0  0  0  0  0  0  0  0  0
   11.8361   14.5381  -14.9347 C   0  0  0  0  0  0  0  0  0  0  0  0
   11.2788   14.5382  -13.6547 C   0  0  0  0  0  0  0  0  0  0  0  0
   11.8569   15.2207  -12.5778 C   0  0  0  0  0  0  0  0  0  0  0  0
   13.0445   15.9266  -12.8171 C   0  0  0  0  0  0  0  0  0  0  0  0
   13.6476   15.9371  -14.0785 C   0  0  0  0  0  0  0  0  0  0  0  0
   13.0525   15.2255  -15.1261 C   0  0  0  0  0  0  0  0  0  0  0  0
    9.5354   13.5442  -12.9429 H   0  0  0  0  0  0  0  0  0  0  0  0
   11.8555   13.8312  -18.1063 N   0  0  0  0  0  0  0  0  0  0  0  0
   11.4043   14.8291  -19.0659 C   0  0  0  0  0  0  0  0  0  0  0  0
   11.6384   14.3716  -20.4973 C   0  0  0  0  0  0  0  0  0  0  0  0
   13.0999   14.0041  -20.6962 C   0  0  0  0  0  0  0  0  0  0  0  0
   13.4938   12.8825  -19.7436 C   0  0  0  0  0  0  0  0  0  0  0  0
   13.1187   13.1059  -18.2683 C   0  0  0  0  0  0  0  0  0  0  0  0
   14.2375   13.7412  -17.4148 C   0  0  0  0  0  0  0  0  0  0  0  0
   15.0070   14.9016  -18.0235 C   0  0  0  0  0  0  0  0  0  0  0  0
   15.7246   16.9079  -13.1780 N   0  0  0  0  0  0  0  0  0  0  0  0
   14.9131   16.7065  -14.2616 C   0  0  0  0  0  0  0  0  0  0  0  0
   15.2414   17.1457  -15.3584 O   0  0  0  0  0  0  0  0  0  0  0  0
   16.5763   17.4303  -13.3379 H   0  0  0  0  0  0  0  0  0  0  0  0
   15.5530   16.5721  -12.2444 H   0  0  0  0  0  0  0  0  0  0  0  0
  3  5  1  0  0  0
  4  2  2  0  0  0
  5  6  2  0  0  0
  6  8  1  0  0  0
  7 15  1  0  0  0
  7  1  2  0  0  0
 16 15  1  0  0  0
 16 17  1  0  0  0
 17 18  1  0  0  0
 18 19  1  0  0  0
 19 20  1  0  0  0
 20 21  1  0  0  0
 20 15  1  0  0  0
 21 22  1  0  0  0
  9  3  1  0  0  0
  9 10  2  0  0  0
 11 12  2  0  0  0
 12 24  1  0  0  0
 13  8  2  0  0  0
 24 23  1  0  0  0
  4  1  1  0  0  0
  5  2  1  0  0  0
  6  7  1  0  0  0
  8  9  1  0  0  0
 10 11  1  0  0  0
 12 13  1  0  0  0
 24 25  2  0  0  0
  3 14  1  0  0  0
 23 26  1  0  0  0
 23 27  1  0  0  0
M  END
> <minimizedAffinity>
-7.97000

$$$$
CHEMBL3715974


 26 29  0  0  0  0  0  0  0  0999 V2000
   11.0136   14.1463  -14.6579 C   0  0  0  0  0  0  0  0  0  0  0  0
   10.1442   14.0343  -12.4919 C   0  0  0  0  0  0  0  0  0  0  0  0
   12.0071   15.1962  -12.7579 C   0  0  0  0  0  0  0  0  0  0  0  0
   12.0766   14.9035  -14.1107 C   0  0  0  0  0  0  0  0  0  0  0  0
   13.3101   15.4680  -14.5805 C   0  0  0  0  0  0  0  0  0  0  0  0
   13.8895   16.1686  -13.5208 C   0  0  0  0  0  0  0  0  0  0  0  0
   15.0835   16.8864  -13.6506 C   0  0  0  0  0  0  0  0  0  0  0  0
   15.7025   16.8925  -14.9077 C   0  0  0  0  0  0  0  0  0  0  0  0
   15.1725   16.1799  -15.9890 C   0  0  0  0  0  0  0  0  0  0  0  0
   13.9967   15.4389  -15.8146 C   0  0  0  0  0  0  0  0  0  0  0  0
   10.0742   13.6832  -13.7904 N   0  0  0  0  0  0  0  0  0  0  0  0
   11.0637   14.8050  -11.8906 N   0  0  0  0  0  0  0  0  0  0  0  0
   13.0797   15.9746  -12.4260 N   0  0  0  0  0  0  0  0  0  0  0  0
   13.2467   16.3308  -11.4973 H   0  0  0  0  0  0  0  0  0  0  0  0
    9.0191   11.8971  -17.8740 C   0  0  0  0  0  0  0  0  0  0  0  0
    9.0708   13.2907  -18.4951 C   0  0  0  0  0  0  0  0  0  0  0  0
    8.9694   14.4354  -17.4911 C   0  0  0  0  0  0  0  0  0  0  0  0
   10.3291   14.8276  -16.9136 C   0  0  0  0  0  0  0  0  0  0  0  0
   11.0441   12.4431  -16.4000 C   0  0  0  0  0  0  0  0  0  0  0  0
    9.7036   11.7254  -16.5178 C   0  0  0  0  0  0  0  0  0  0  0  0
   10.8916   13.8380  -16.0054 N   0  0  0  0  0  0  0  0  0  0  0  0
   15.8843   16.2459  -17.2985 C   0  0  0  0  0  0  0  0  0  0  0  0
   16.1307   17.4734  -17.8507 N   0  0  0  0  0  0  0  0  0  0  0  0
   16.2678   15.2318  -17.8707 O   0  0  0  0  0  0  0  0  0  0  0  0
   16.6258   17.4836  -18.7332 H   0  0  0  0  0  0  0  0  0  0  0  0
   15.8823   18.3599  -17.4434 H   0  0  0  0  0  0  0  0  0  0  0  0
 15 16  1  0  0  0
 16 17  1  0  0  0
 17 18  1  0  0  0
 18 21  1  0  0  0
 19 21  1  0  0  0
 19 20  1  0  0  0
 20 15  1  0  0  0
  2 11  2  0  0  0
  3 12  2  0  0  0
  4  5  1  0  0  0
  4  1  2  0  0  0
  6 13  1  0  0  0
  6  7  2  0  0  0
  8  9  2  0  0  0
  9 22  1  0  0  0
 10  5  2  0  0  0
 22 23  1  0  0  0
 21  1  1  0  0  0
 13  3  1  0  0  0
  1 11  1  0  0  0
  2 12  1  0  0  0
  3  4  1  0  0  0
  5  6  1  0  0  0
  7  8  1  0  0  0
  9 10  1  0  0  0
 22 24  2  0  0  0
 13 14  1  0  0  0
 23 25  1  0  0  0
 23 26  1  0  0  0
M  END
> <minimizedAffinity>
-9.80782

$$$$
CHEMBL3715974


 26 29  0  0  0  0  0  0  0  0999 V2000
   13.4405   14.6356  -17.0711 C   0  0  0  0  0  0  0  0  0  0  0  0
   15.2980   15.7962  -17.8849 C   0  0  0  0  0  0  0  0  0  0  0  0
   14.8532   16.0155  -15.7296 C   0  0  0  0  0  0  0  0  0  0  0  0
   13.7228   15.2180  -15.8125 C   0  0  0  0  0  0  0  0  0  0  0  0
   13.1137   15.2488  -14.5130 C   0  0  0  0  0  0  0  0  0  0  0  0
   13.9516   15.9773  -13.6663 C   0  0  0  0  0  0  0  0  0  0  0  0
   13.6802   16.1596  -12.3059 C   0  0  0  0  0  0  0  0  0  0  0  0
   12.5159   15.5725  -11.7931 C   0  0  0  0  0  0  0  0  0  0  0  0
   11.6330   14.8596  -12.6116 C   0  0  0  0  0  0  0  0  0  0  0  0
   11.9142   14.7295  -13.9777 C   0  0  0  0  0  0  0  0  0  0  0  0
   14.2403   14.9936  -18.1111 N   0  0  0  0  0  0  0  0  0  0  0  0
   15.6936   16.3374  -16.7222 N   0  0  0  0  0  0  0  0  0  0  0  0
   14.9928   16.4384  -14.4380 N   0  0  0  0  0  0  0  0  0  0  0  0
   15.7503   17.0231  -14.1193 H   0  0  0  0  0  0  0  0  0  0  0  0
   10.6481   11.5811  -15.5700 C   0  0  0  0  0  0  0  0  0  0  0  0
    9.6960   12.4618  -16.3753 C   0  0  0  0  0  0  0  0  0  0  0  0
   10.0705   13.9408  -16.4005 C   0  0  0  0  0  0  0  0  0  0  0  0
   11.0554   14.2748  -17.5206 C   0  0  0  0  0  0  0  0  0  0  0  0
   12.6248   12.3403  -17.0150 C   0  0  0  0  0  0  0  0  0  0  0  0
   12.1319   11.9452  -15.6268 C   0  0  0  0  0  0  0  0  0  0  0  0
   12.3965   13.7510  -17.3020 N   0  0  0  0  0  0  0  0  0  0  0  0
   10.4203   14.2542  -11.9880 C   0  0  0  0  0  0  0  0  0  0  0  0
    9.4864   13.6704  -12.7999 N   0  0  0  0  0  0  0  0  0  0  0  0
   10.2592   14.2508  -10.7727 O   0  0  0  0  0  0  0  0  0  0  0  0
    8.6820   13.2587  -12.3445 H   0  0  0  0  0  0  0  0  0  0  0  0
    9.5447   13.5975  -13.8024 H   0  0  0  0  0  0  0  0  0  0  0  0
 15 16  1  0  0  0
 16 17  1  0  0  0
 17 18  1  0  0  0
 18 21  1  0  0  0
 19 21  1  0  0  0
 19 20  1  0  0  0
 20 15  1  0  0  0
  2 11  2  0  0  0
  3 12  2  0  0  0
  4  5  1  0  0  0
  4  1  2  0  0  0
  6 13  1  0  0  0
  6  7  2  0  0  0
  8  9  2  0  0  0
  9 22  1  0  0  0
 10  5  2  0  0  0
 22 23  1  0  0  0
 21  1  1  0  0  0
 13  3  1  0  0  0
  1 11  1  0  0  0
  2 12  1  0  0  0
  3  4  1  0  0  0
  5  6  1  0  0  0
  7  8  1  0  0  0
  9 10  1  0  0  0
 22 24  2  0  0  0
 13 14  1  0  0  0
 23 25  1  0  0  0
 23 26  1  0  0  0
M  END
> <minimizedAffinity>
-9.78554

$$$$
CHEMBL3715974


 26 29  0  0  0  0  0  0  0  0999 V2000
   10.5143   14.1393  -15.5340 C   0  0  0  0  0  0  0  0  0  0  0  0
    8.8174   13.0539  -14.3497 C   0  0  0  0  0  0  0  0  0  0  0  0
   10.3422   14.1188  -13.1529 C   0  0  0  0  0  0  0  0  0  0  0  0
   11.0573   14.4989  -14.2776 C   0  0  0  0  0  0  0  0  0  0  0  0
   12.2363   15.1628  -13.7979 C   0  0  0  0  0  0  0  0  0  0  0  0
   12.1402   15.2515  -12.4078 C   0  0  0  0  0  0  0  0  0  0  0  0
   13.1047   15.8912  -11.6215 C   0  0  0  0  0  0  0  0  0  0  0  0
   14.2012   16.4641  -12.2794 C   0  0  0  0  0  0  0  0  0  0  0  0
   14.3524   16.3729  -13.6674 C   0  0  0  0  0  0  0  0  0  0  0  0
   13.3886   15.6909  -14.4212 C   0  0  0  0  0  0  0  0  0  0  0  0
    9.3977   13.3630  -15.5252 N   0  0  0  0  0  0  0  0  0  0  0  0
    9.2082   13.4061  -13.1151 N   0  0  0  0  0  0  0  0  0  0  0  0
   10.9847   14.5985  -12.0467 N   0  0  0  0  0  0  0  0  0  0  0  0
   10.6517   14.4647  -11.1042 H   0  0  0  0  0  0  0  0  0  0  0  0
   12.9839   13.1617  -19.0447 C   0  0  0  0  0  0  0  0  0  0  0  0
   11.7753   13.8043  -19.7206 C   0  0  0  0  0  0  0  0  0  0  0  0
   10.4517   13.5824  -18.9945 C   0  0  0  0  0  0  0  0  0  0  0  0
   10.1940   14.6342  -17.9159 C   0  0  0  0  0  0  0  0  0  0  0  0
   12.5130   14.4660  -16.8887 C   0  0  0  0  0  0  0  0  0  0  0  0
   12.9949   13.1621  -17.5159 C   0  0  0  0  0  0  0  0  0  0  0  0
   11.0624   14.5115  -16.7533 N   0  0  0  0  0  0  0  0  0  0  0  0
   15.5417   17.0192  -14.2948 C   0  0  0  0  0  0  0  0  0  0  0  0
   16.6153   17.3268  -13.5042 N   0  0  0  0  0  0  0  0  0  0  0  0
   15.5821   17.2561  -15.4970 O   0  0  0  0  0  0  0  0  0  0  0  0
   17.4102   17.7532  -13.9628 H   0  0  0  0  0  0  0  0  0  0  0  0
   16.6874   17.1443  -12.5167 H   0  0  0  0  0  0  0  0  0  0  0  0
 15 16  1  0  0  0
 16 17  1  0  0  0
 17 18  1  0  0  0
 18 21  1  0  0  0
 19 21  1  0  0  0
 19 20  1  0  0  0
 20 15  1  0  0  0
  2 11  2  0  0  0
  3 12  2  0  0  0
  4  5  1  0  0  0
  4  1  2  0  0  0
  6 13  1  0  0  0
  6  7  2  0  0  0
  8  9  2  0  0  0
  9 22  1  0  0  0
 10  5  2  0  0  0
 22 23  1  0  0  0
 21  1  1  0  0  0
 13  3  1  0  0  0
  1 11  1  0  0  0
  2 12  1  0  0  0
  3  4  1  0  0  0
  5  6  1  0  0  0
  7  8  1  0  0  0
  9 10  1  0  0  0
 22 24  2  0  0  0
 13 14  1  0  0  0
 23 25  1  0  0  0
 23 26  1  0  0  0
M  END
> <minimizedAffinity>
-8.88879

$$$$
CHEMBL3715974


 26 29  0  0  0  0  0  0  0  0999 V2000
   12.3611   14.1686  -17.1991 C   0  0  0  0  0  0  0  0  0  0  0  0
   13.9510   14.9361  -18.7299 C   0  0  0  0  0  0  0  0  0  0  0  0
   14.2925   15.4392  -16.6035 C   0  0  0  0  0  0  0  0  0  0  0  0
   13.1183   14.8240  -16.1992 C   0  0  0  0  0  0  0  0  0  0  0  0
   12.9946   15.0810  -14.7923 C   0  0  0  0  0  0  0  0  0  0  0  0
   14.1472   15.7514  -14.3781 C   0  0  0  0  0  0  0  0  0  0  0  0
   14.3765   16.1107  -13.0454 C   0  0  0  0  0  0  0  0  0  0  0  0
   13.3969   15.7678  -12.1040 C   0  0  0  0  0  0  0  0  0  0  0  0
   12.2135   15.1225  -12.4798 C   0  0  0  0  0  0  0  0  0  0  0  0
   11.9974   14.8125  -13.8286 C   0  0  0  0  0  0  0  0  0  0  0  0
   12.7954   14.2901  -18.4822 N   0  0  0  0  0  0  0  0  0  0  0  0
   14.7766   15.5237  -17.8500 N   0  0  0  0  0  0  0  0  0  0  0  0
   14.9096   15.9636  -15.5031 N   0  0  0  0  0  0  0  0  0  0  0  0
   15.7915   16.4518  -15.5355 H   0  0  0  0  0  0  0  0  0  0  0  0
    8.1057   13.3919  -18.0165 C   0  0  0  0  0  0  0  0  0  0  0  0
    8.6575   11.9684  -18.0192 C   0  0  0  0  0  0  0  0  0  0  0  0
   10.0927   11.8468  -18.5229 C   0  0  0  0  0  0  0  0  0  0  0  0
   11.1213   12.0619  -17.4131 C   0  0  0  0  0  0  0  0  0  0  0  0
   10.0254   14.1682  -16.5054 C   0  0  0  0  0  0  0  0  0  0  0  0
    9.0887   14.5073  -17.6602 C   0  0  0  0  0  0  0  0  0  0  0  0
   11.2075   13.4393  -16.9481 N   0  0  0  0  0  0  0  0  0  0  0  0
   11.2244   14.7805  -11.4166 C   0  0  0  0  0  0  0  0  0  0  0  0
   11.6872   14.4250  -10.1790 N   0  0  0  0  0  0  0  0  0  0  0  0
   10.0173   14.8339  -11.6239 O   0  0  0  0  0  0  0  0  0  0  0  0
   10.9902   14.2109   -9.4773 H   0  0  0  0  0  0  0  0  0  0  0  0
   12.6552   14.3816   -9.9054 H   0  0  0  0  0  0  0  0  0  0  0  0
 15 16  1  0  0  0
 16 17  1  0  0  0
 17 18  1  0  0  0
 18 21  1  0  0  0
 19 21  1  0  0  0
 19 20  1  0  0  0
 20 15  1  0  0  0
  2 11  2  0  0  0
  3 12  2  0  0  0
  4  5  1  0  0  0
  4  1  2  0  0  0
  6 13  1  0  0  0
  6  7  2  0  0  0
  8  9  2  0  0  0
  9 22  1  0  0  0
 10  5  2  0  0  0
 22 23  1  0  0  0
 21  1  1  0  0  0
 13  3  1  0  0  0
  1 11  1  0  0  0
  2 12  1  0  0  0
  3  4  1  0  0  0
  5  6  1  0  0  0
  7  8  1  0  0  0
  9 10  1  0  0  0
 22 24  2  0  0  0
 13 14  1  0  0  0
 23 25  1  0  0  0
 23 26  1  0  0  0
M  END
> <minimizedAffinity>
-8.74546

$$$$
CHEMBL3715974


 26 29  0  0  0  0  0  0  0  0999 V2000
   13.6788   14.4870  -18.5700 C   0  0  0  0  0  0  0  0  0  0  0  0
   15.6380   15.7264  -18.2779 C   0  0  0  0  0  0  0  0  0  0  0  0
   14.4039   15.3762  -16.4764 C   0  0  0  0  0  0  0  0  0  0  0  0
   13.4341   14.6910  -17.1912 C   0  0  0  0  0  0  0  0  0  0  0  0
   12.3804   14.4001  -16.2606 C   0  0  0  0  0  0  0  0  0  0  0  0
   12.7963   14.8272  -14.9980 C   0  0  0  0  0  0  0  0  0  0  0  0
   12.0235   14.6478  -13.8455 C   0  0  0  0  0  0  0  0  0  0  0  0
   10.7866   14.0051  -13.9882 C   0  0  0  0  0  0  0  0  0  0  0  0
   10.3176   13.5877  -15.2387 C   0  0  0  0  0  0  0  0  0  0  0  0
   11.0987   13.8183  -16.3784 C   0  0  0  0  0  0  0  0  0  0  0  0
   14.7897   15.0714  -19.0936 N   0  0  0  0  0  0  0  0  0  0  0  0
   15.5364   15.9109  -16.9525 N   0  0  0  0  0  0  0  0  0  0  0  0
   14.0237   15.4253  -15.1651 N   0  0  0  0  0  0  0  0  0  0  0  0
   14.5718   15.8614  -14.4394 H   0  0  0  0  0  0  0  0  0  0  0  0
   11.7272   13.9712  -22.4822 C   0  0  0  0  0  0  0  0  0  0  0  0
   12.2486   12.5572  -22.2389 C   0  0  0  0  0  0  0  0  0  0  0  0
   13.5523   12.4905  -21.4487 C   0  0  0  0  0  0  0  0  0  0  0  0
   13.3197   12.4820  -19.9381 C   0  0  0  0  0  0  0  0  0  0  0  0
   11.6781   14.4225  -19.9592 C   0  0  0  0  0  0  0  0  0  0  0  0
   11.9357   14.9821  -21.3543 C   0  0  0  0  0  0  0  0  0  0  0  0
   12.8495   13.7538  -19.4068 N   0  0  0  0  0  0  0  0  0  0  0  0
    8.9954   12.9000  -15.3064 C   0  0  0  0  0  0  0  0  0  0  0  0
    8.2762   12.7448  -14.1527 N   0  0  0  0  0  0  0  0  0  0  0  0
    8.5371   12.4965  -16.3694 O   0  0  0  0  0  0  0  0  0  0  0  0
    7.3785   12.2851  -14.2351 H   0  0  0  0  0  0  0  0  0  0  0  0
    8.5544   13.0679  -13.2406 H   0  0  0  0  0  0  0  0  0  0  0  0
 15 16  1  0  0  0
 16 17  1  0  0  0
 17 18  1  0  0  0
 18 21  1  0  0  0
 19 21  1  0  0  0
 19 20  1  0  0  0
 20 15  1  0  0  0
  2 11  2  0  0  0
  3 12  2  0  0  0
  4  5  1  0  0  0
  4  1  2  0  0  0
  6 13  1  0  0  0
  6  7  2  0  0  0
  8  9  2  0  0  0
  9 22  1  0  0  0
 10  5  2  0  0  0
 22 23  1  0  0  0
 21  1  1  0  0  0
 13  3  1  0  0  0
  1 11  1  0  0  0
  2 12  1  0  0  0
  3  4  1  0  0  0
  5  6  1  0  0  0
  7  8  1  0  0  0
  9 10  1  0  0  0
 22 24  2  0  0  0
 13 14  1  0  0  0
 23 25  1  0  0  0
 23 26  1  0  0  0
M  END
> <minimizedAffinity>
-8.32859

$$$$
CHEMBL3715974


 26 29  0  0  0  0  0  0  0  0999 V2000
   11.1135   13.3238  -18.1508 C   0  0  0  0  0  0  0  0  0  0  0  0
    9.1816   12.0276  -17.9322 C   0  0  0  0  0  0  0  0  0  0  0  0
    9.8757   13.0927  -16.1225 C   0  0  0  0  0  0  0  0  0  0  0  0
   10.9834   13.6143  -16.7718 C   0  0  0  0  0  0  0  0  0  0  0  0
   11.7397   14.3165  -15.7740 C   0  0  0  0  0  0  0  0  0  0  0  0
   11.0108   14.2819  -14.5835 C   0  0  0  0  0  0  0  0  0  0  0  0
   11.4399   14.9194  -13.4143 C   0  0  0  0  0  0  0  0  0  0  0  0
   12.6521   15.6204  -13.4659 C   0  0  0  0  0  0  0  0  0  0  0  0
   13.4290   15.6562  -14.6290 C   0  0  0  0  0  0  0  0  0  0  0  0
   12.9899   14.9739  -15.7709 C   0  0  0  0  0  0  0  0  0  0  0  0
   10.2005   12.4735  -18.6920 N   0  0  0  0  0  0  0  0  0  0  0  0
    8.9277   12.3019  -16.6433 N   0  0  0  0  0  0  0  0  0  0  0  0
    9.8901   13.5220  -14.8255 N   0  0  0  0  0  0  0  0  0  0  0  0
    9.1787   13.2870  -14.1503 H   0  0  0  0  0  0  0  0  0  0  0  0
   13.6159   12.9970  -21.7578 C   0  0  0  0  0  0  0  0  0  0  0  0
   13.2118   14.4675  -21.8277 C   0  0  0  0  0  0  0  0  0  0  0  0
   11.8270   14.7709  -21.2630 C   0  0  0  0  0  0  0  0  0  0  0  0
   11.8538   15.0254  -19.7562 C   0  0  0  0  0  0  0  0  0  0  0  0
   13.2792   12.9912  -19.2166 C   0  0  0  0  0  0  0  0  0  0  0  0
   13.1566   12.2177  -20.5253 C   0  0  0  0  0  0  0  0  0  0  0  0
   12.1175   13.8339  -18.9615 N   0  0  0  0  0  0  0  0  0  0  0  0
   14.7018   16.4341  -14.6076 C   0  0  0  0  0  0  0  0  0  0  0  0
   15.3067   16.6704  -13.4031 N   0  0  0  0  0  0  0  0  0  0  0  0
   15.2211   16.8410  -15.6408 O   0  0  0  0  0  0  0  0  0  0  0  0
   16.1745   17.1904  -13.4246 H   0  0  0  0  0  0  0  0  0  0  0  0
   14.9738   16.3525  -12.5077 H   0  0  0  0  0  0  0  0  0  0  0  0
 15 16  1  0  0  0
 16 17  1  0  0  0
 17 18  1  0  0  0
 18 21  1  0  0  0
 19 21  1  0  0  0
 19 20  1  0  0  0
 20 15  1  0  0  0
  2 11  2  0  0  0
  3 12  2  0  0  0
  4  5  1  0  0  0
  4  1  2  0  0  0
  6 13  1  0  0  0
  6  7  2  0  0  0
  8  9  2  0  0  0
  9 22  1  0  0  0
 10  5  2  0  0  0
 22 23  1  0  0  0
 21  1  1  0  0  0
 13  3  1  0  0  0
  1 11  1  0  0  0
  2 12  1  0  0  0
  3  4  1  0  0  0
  5  6  1  0  0  0
  7  8  1  0  0  0
  9 10  1  0  0  0
 22 24  2  0  0  0
 13 14  1  0  0  0
 23 25  1  0  0  0
 23 26  1  0  0  0
M  END
> <minimizedAffinity>
-8.18658

$$$$
CHEMBL3715974


 26 29  0  0  0  0  0  0  0  0999 V2000
    8.8751   12.0392  -18.2135 C   0  0  0  0  0  0  0  0  0  0  0  0
    7.3188   10.8710  -19.5069 C   0  0  0  0  0  0  0  0  0  0  0  0
    9.2631   11.3249  -20.4581 C   0  0  0  0  0  0  0  0  0  0  0  0
    9.7252   12.0081  -19.3444 C   0  0  0  0  0  0  0  0  0  0  0  0
   11.0057   12.5466  -19.7068 C   0  0  0  0  0  0  0  0  0  0  0  0
   11.3165   12.0835  -20.9869 C   0  0  0  0  0  0  0  0  0  0  0  0
   12.5248   12.3803  -21.6267 C   0  0  0  0  0  0  0  0  0  0  0  0
   13.4485   13.1724  -20.9319 C   0  0  0  0  0  0  0  0  0  0  0  0
   13.1660   13.6823  -19.6598 C   0  0  0  0  0  0  0  0  0  0  0  0
   11.9304   13.3991  -19.0639 C   0  0  0  0  0  0  0  0  0  0  0  0
    7.6393   11.4891  -18.3540 N   0  0  0  0  0  0  0  0  0  0  0  0
    8.0757   10.7217  -20.6051 N   0  0  0  0  0  0  0  0  0  0  0  0
   10.2335   11.3540  -21.4195 N   0  0  0  0  0  0  0  0  0  0  0  0
   10.1411   10.9125  -22.3215 H   0  0  0  0  0  0  0  0  0  0  0  0
   11.9639   13.1548  -15.2818 C   0  0  0  0  0  0  0  0  0  0  0  0
   11.1339   14.4356  -15.3176 C   0  0  0  0  0  0  0  0  0  0  0  0
   10.4947   14.7380  -16.6698 C   0  0  0  0  0  0  0  0  0  0  0  0
    9.1377   14.0555  -16.8399 C   0  0  0  0  0  0  0  0  0  0  0  0
    9.9355   11.7802  -16.0351 C   0  0  0  0  0  0  0  0  0  0  0  0
   11.4457   11.9788  -16.1100 C   0  0  0  0  0  0  0  0  0  0  0  0
    9.2203   12.6100  -16.9967 N   0  0  0  0  0  0  0  0  0  0  0  0
   14.2062   14.5082  -18.9803 C   0  0  0  0  0  0  0  0  0  0  0  0
   14.5287   15.7266  -19.5131 N   0  0  0  0  0  0  0  0  0  0  0  0
   14.7543   14.1282  -17.9517 O   0  0  0  0  0  0  0  0  0  0  0  0
   15.2290   16.2667  -19.0213 H   0  0  0  0  0  0  0  0  0  0  0  0
   14.1135   16.1357  -20.3339 H   0  0  0  0  0  0  0  0  0  0  0  0
 15 16  1  0  0  0
 16 17  1  0  0  0
 17 18  1  0  0  0
 18 21  1  0  0  0
 19 21  1  0  0  0
 19 20  1  0  0  0
 20 15  1  0  0  0
  2 11  2  0  0  0
  3 12  2  0  0  0
  4  5  1  0  0  0
  4  1  2  0  0  0
  6 13  1  0  0  0
  6  7  2  0  0  0
  8  9  2  0  0  0
  9 22  1  0  0  0
 10  5  2  0  0  0
 22 23  1  0  0  0
 21  1  1  0  0  0
 13  3  1  0  0  0
  1 11  1  0  0  0
  2 12  1  0  0  0
  3  4  1  0  0  0
  5  6  1  0  0  0
  7  8  1  0  0  0
  9 10  1  0  0  0
 22 24  2  0  0  0
 13 14  1  0  0  0
 23 25  1  0  0  0
 23 26  1  0  0  0
M  END
> <minimizedAffinity>
-8.05475

$$$$
CHEMBL3715974


 26 29  0  0  0  0  0  0  0  0999 V2000
   13.4016   14.2451  -18.9725 C   0  0  0  0  0  0  0  0  0  0  0  0
   15.1977   14.9672  -17.6640 C   0  0  0  0  0  0  0  0  0  0  0  0
   13.4216   14.2098  -16.5855 C   0  0  0  0  0  0  0  0  0  0  0  0
   12.7197   13.9870  -17.7596 C   0  0  0  0  0  0  0  0  0  0  0  0
   11.4060   13.5618  -17.3671 C   0  0  0  0  0  0  0  0  0  0  0  0
   11.3938   13.4433  -15.9759 C   0  0  0  0  0  0  0  0  0  0  0  0
   10.2751   12.9972  -15.2638 C   0  0  0  0  0  0  0  0  0  0  0  0
    9.1326   12.6555  -15.9995 C   0  0  0  0  0  0  0  0  0  0  0  0
    9.0911   12.7872  -17.3919 C   0  0  0  0  0  0  0  0  0  0  0  0
   10.2153   13.2747  -18.0706 C   0  0  0  0  0  0  0  0  0  0  0  0
   14.6449   14.7882  -18.8791 N   0  0  0  0  0  0  0  0  0  0  0  0
   14.6677   14.6869  -16.4633 N   0  0  0  0  0  0  0  0  0  0  0  0
   12.6287   13.8547  -15.5311 N   0  0  0  0  0  0  0  0  0  0  0  0
   12.9203   13.9123  -14.5673 H   0  0  0  0  0  0  0  0  0  0  0  0
   13.7525   14.4754  -23.3547 C   0  0  0  0  0  0  0  0  0  0  0  0
   13.2662   13.0382  -23.1863 C   0  0  0  0  0  0  0  0  0  0  0  0
   13.7394   12.3558  -21.9061 C   0  0  0  0  0  0  0  0  0  0  0  0
   12.8122   12.6286  -20.7220 C   0  0  0  0  0  0  0  0  0  0  0  0
   12.6787   15.1351  -21.1224 C   0  0  0  0  0  0  0  0  0  0  0  0
   13.8479   15.3201  -22.0840 C   0  0  0  0  0  0  0  0  0  0  0  0
   12.8708   13.9983  -20.2307 N   0  0  0  0  0  0  0  0  0  0  0  0
    7.8415   12.3913  -18.1044 C   0  0  0  0  0  0  0  0  0  0  0  0
    7.8693   11.2903  -18.9163 N   0  0  0  0  0  0  0  0  0  0  0  0
    6.7963   13.0151  -17.9587 O   0  0  0  0  0  0  0  0  0  0  0  0
    7.0023   11.0419  -19.3752 H   0  0  0  0  0  0  0  0  0  0  0  0
    8.6687   10.6991  -19.0751 H   0  0  0  0  0  0  0  0  0  0  0  0
 15 16  1  0  0  0
 16 17  1  0  0  0
 17 18  1  0  0  0
 18 21  1  0  0  0
 19 21  1  0  0  0
 19 20  1  0  0  0
 20 15  1  0  0  0
  2 11  2  0  0  0
  3 12  2  0  0  0
  4  5  1  0  0  0
  4  1  2  0  0  0
  6 13  1  0  0  0
  6  7  2  0  0  0
  8  9  2  0  0  0
  9 22  1  0  0  0
 10  5  2  0  0  0
 22 23  1  0  0  0
 21  1  1  0  0  0
 13  3  1  0  0  0
  1 11  1  0  0  0
  2 12  1  0  0  0
  3  4  1  0  0  0
  5  6  1  0  0  0
  7  8  1  0  0  0
  9 10  1  0  0  0
 22 24  2  0  0  0
 13 14  1  0  0  0
 23 25  1  0  0  0
 23 26  1  0  0  0
M  END
> <minimizedAffinity>
-7.99859

$$$$
CHEMBL3715974


 26 29  0  0  0  0  0  0  0  0999 V2000
   12.8439   14.7842  -16.5162 C   0  0  0  0  0  0  0  0  0  0  0  0
   15.0851   15.0983  -17.0978 C   0  0  0  0  0  0  0  0  0  0  0  0
   13.8221   14.0122  -18.5526 C   0  0  0  0  0  0  0  0  0  0  0  0
   12.7060   14.0754  -17.7333 C   0  0  0  0  0  0  0  0  0  0  0  0
   11.6791   13.3217  -18.3954 C   0  0  0  0  0  0  0  0  0  0  0  0
   12.1781   12.9189  -19.6357 C   0  0  0  0  0  0  0  0  0  0  0  0
   11.4130   12.2036  -20.5635 C   0  0  0  0  0  0  0  0  0  0  0  0
   10.0919   11.8948  -20.2133 C   0  0  0  0  0  0  0  0  0  0  0  0
    9.5608   12.2528  -18.9692 C   0  0  0  0  0  0  0  0  0  0  0  0
   10.3662   12.9338  -18.0475 C   0  0  0  0  0  0  0  0  0  0  0  0
   14.0845   15.2488  -16.2088 N   0  0  0  0  0  0  0  0  0  0  0  0
   15.0403   14.5117  -18.3040 N   0  0  0  0  0  0  0  0  0  0  0  0
   13.4848   13.3442  -19.6956 N   0  0  0  0  0  0  0  0  0  0  0  0
   14.1253   13.1793  -20.4571 H   0  0  0  0  0  0  0  0  0  0  0  0
   10.4519   13.4678  -13.0629 C   0  0  0  0  0  0  0  0  0  0  0  0
   10.6961   14.9293  -12.6957 C   0  0  0  0  0  0  0  0  0  0  0  0
   12.0304   15.4892  -13.1800 C   0  0  0  0  0  0  0  0  0  0  0  0
   11.9512   16.0371  -14.6047 C   0  0  0  0  0  0  0  0  0  0  0  0
   10.7448   14.0099  -15.5512 C   0  0  0  0  0  0  0  0  0  0  0  0
   10.9720   13.0071  -14.4248 C   0  0  0  0  0  0  0  0  0  0  0  0
   11.8044   15.0082  -15.6247 N   0  0  0  0  0  0  0  0  0  0  0  0
    8.1416   11.8982  -18.6759 C   0  0  0  0  0  0  0  0  0  0  0  0
    7.6205   10.7616  -19.2317 N   0  0  0  0  0  0  0  0  0  0  0  0
    7.4492   12.5877  -17.9356 O   0  0  0  0  0  0  0  0  0  0  0  0
    6.6592   10.5435  -19.0031 H   0  0  0  0  0  0  0  0  0  0  0  0
    8.1177   10.1185  -19.8256 H   0  0  0  0  0  0  0  0  0  0  0  0
 15 16  1  0  0  0
 16 17  1  0  0  0
 17 18  1  0  0  0
 18 21  1  0  0  0
 19 21  1  0  0  0
 19 20  1  0  0  0
 20 15  1  0  0  0
  2 11  2  0  0  0
  3 12  2  0  0  0
  4  5  1  0  0  0
  4  1  2  0  0  0
  6 13  1  0  0  0
  6  7  2  0  0  0
  8  9  2  0  0  0
  9 22  1  0  0  0
 10  5  2  0  0  0
 22 23  1  0  0  0
 21  1  1  0  0  0
 13  3  1  0  0  0
  1 11  1  0  0  0
  2 12  1  0  0  0
  3  4  1  0  0  0
  5  6  1  0  0  0
  7  8  1  0  0  0
  9 10  1  0  0  0
 22 24  2  0  0  0
 13 14  1  0  0  0
 23 25  1  0  0  0
 23 26  1  0  0  0
M  END
> <minimizedAffinity>
-7.82056

$$$$
CHEMBL3356065


 27 30  0  0  0  0  0  0  0  0999 V2000
   10.2886   11.6193  -17.5998 C   0  0  0  0  0  0  0  0  0  0  0  0
   11.2234   12.6234  -16.8625 C   0  0  0  0  0  0  0  0  0  0  0  0
    9.1708   14.0257  -16.9617 C   0  0  0  0  0  0  0  0  0  0  0  0
    8.9606   13.5959  -18.4233 C   0  0  0  0  0  0  0  0  0  0  0  0
   11.2678   15.1306  -16.3465 C   0  0  0  0  0  0  0  0  0  0  0  0
   11.6417   11.9958  -15.5265 C   0  0  0  0  0  0  0  0  0  0  0  0
    9.4781   12.2367  -18.6522 N   0  0  0  0  0  0  0  0  0  0  0  0
   10.5986   13.9493  -16.6365 N   0  0  0  0  0  0  0  0  0  0  0  0
   10.6534   16.1805  -16.1257 O   0  0  0  0  0  0  0  0  0  0  0  0
    9.4324   11.0817  -22.1468 C   0  0  0  0  0  0  0  0  0  0  0  0
   11.3123   12.1742  -21.7410 C   0  0  0  0  0  0  0  0  0  0  0  0
    9.8185   11.9579  -19.9675 C   0  0  0  0  0  0  0  0  0  0  0  0
    8.9813   11.2294  -20.8429 C   0  0  0  0  0  0  0  0  0  0  0  0
    7.7354   10.5138  -20.7579 C   0  0  0  0  0  0  0  0  0  0  0  0
    7.4674   10.0189  -22.0235 C   0  0  0  0  0  0  0  0  0  0  0  0
    6.8893   10.2989  -19.5550 C   0  0  0  0  0  0  0  0  0  0  0  0
   10.5808   11.5359  -22.6671 N   0  0  0  0  0  0  0  0  0  0  0  0
   11.0112   12.3982  -20.4470 N   0  0  0  0  0  0  0  0  0  0  0  0
    8.4996   10.3733  -22.8496 N   0  0  0  0  0  0  0  0  0  0  0  0
    8.5932   10.1381  -23.8268 H   0  0  0  0  0  0  0  0  0  0  0  0
   12.7920   15.1429  -16.3378 C   0  0  0  0  0  0  0  0  0  0  0  0
   13.3477   15.5638  -14.9964 C   0  0  0  0  0  0  0  0  0  0  0  0
   14.5440   16.2891  -14.9099 C   0  0  0  0  0  0  0  0  0  0  0  0
   15.0358   16.7003  -13.6705 C   0  0  0  0  0  0  0  0  0  0  0  0
   14.3377   16.3924  -12.5052 C   0  0  0  0  0  0  0  0  0  0  0  0
   13.1447   15.6765  -12.5784 C   0  0  0  0  0  0  0  0  0  0  0  0
   12.6493   15.2673  -13.8175 C   0  0  0  0  0  0  0  0  0  0  0  0
 11 17  2  0  0  0
 12 18  2  0  0  0
 12  7  1  0  0  0
 13 14  1  0  0  0
 13 10  2  0  0  0
 15 19  1  0  0  0
 16 14  1  0  0  0
  1  7  1  0  0  0
  1  2  1  0  0  0
  2  8  1  0  0  0
  2  6  1  0  0  0
  3  8  1  0  0  0
  3  4  1  0  0  0
  4  7  1  0  0  0
 21  5  1  0  0  0
 21 22  1  0  0  0
 23 24  2  0  0  0
 25 26  2  0  0  0
 27 22  2  0  0  0
 19 10  1  0  0  0
  8  5  1  0  0  0
 10 17  1  0  0  0
 11 18  1  0  0  0
 12 13  1  0  0  0
 14 15  2  0  0  0
  5  9  2  0  0  0
 22 23  1  0  0  0
 24 25  1  0  0  0
 26 27  1  0  0  0
 19 20  1  0  0  0
M  END
> <minimizedAffinity>
-8.95291

$$$$
CHEMBL3356065


 27 30  0  0  0  0  0  0  0  0999 V2000
   11.1261   11.8453  -18.1170 C   0  0  0  0  0  0  0  0  0  0  0  0
   11.7133   12.7624  -17.0036 C   0  0  0  0  0  0  0  0  0  0  0  0
    9.7263   14.1320  -17.6080 C   0  0  0  0  0  0  0  0  0  0  0  0
   10.0247   13.8887  -19.0969 C   0  0  0  0  0  0  0  0  0  0  0  0
   11.4451   15.1837  -16.2165 C   0  0  0  0  0  0  0  0  0  0  0  0
   11.7127   11.9766  -15.6860 C   0  0  0  0  0  0  0  0  0  0  0  0
   10.6653   12.5785  -19.2984 N   0  0  0  0  0  0  0  0  0  0  0  0
   10.9743   14.0382  -16.8438 N   0  0  0  0  0  0  0  0  0  0  0  0
   10.7333   16.1867  -16.0900 O   0  0  0  0  0  0  0  0  0  0  0  0
   11.7798   12.0098  -22.7601 C   0  0  0  0  0  0  0  0  0  0  0  0
   13.4565   12.7951  -21.5502 C   0  0  0  0  0  0  0  0  0  0  0  0
   11.4278   12.4753  -20.4524 C   0  0  0  0  0  0  0  0  0  0  0  0
   10.9103   11.9993  -21.6786 C   0  0  0  0  0  0  0  0  0  0  0  0
    9.6759   11.4306  -22.1521 C   0  0  0  0  0  0  0  0  0  0  0  0
    9.8401   11.1792  -23.5042 C   0  0  0  0  0  0  0  0  0  0  0  0
    8.4524   11.1272  -21.3646 C   0  0  0  0  0  0  0  0  0  0  0  0
   13.0607   12.4033  -22.7709 N   0  0  0  0  0  0  0  0  0  0  0  0
   12.7352   12.8434  -20.4133 N   0  0  0  0  0  0  0  0  0  0  0  0
   11.1137   11.5373  -23.8550 N   0  0  0  0  0  0  0  0  0  0  0  0
   11.5297   11.4518  -24.7708 H   0  0  0  0  0  0  0  0  0  0  0  0
   12.8813   15.2199  -15.7073 C   0  0  0  0  0  0  0  0  0  0  0  0
   12.9471   15.4250  -14.2110 C   0  0  0  0  0  0  0  0  0  0  0  0
   11.9603   14.8941  -13.3690 C   0  0  0  0  0  0  0  0  0  0  0  0
   12.0430   15.0616  -11.9862 C   0  0  0  0  0  0  0  0  0  0  0  0
   13.1123   15.7599  -11.4302 C   0  0  0  0  0  0  0  0  0  0  0  0
   14.1024   16.2878  -12.2562 C   0  0  0  0  0  0  0  0  0  0  0  0
   14.0232   16.1182  -13.6393 C   0  0  0  0  0  0  0  0  0  0  0  0
 11 17  2  0  0  0
 12 18  2  0  0  0
 12  7  1  0  0  0
 13 14  1  0  0  0
 13 10  2  0  0  0
 15 19  1  0  0  0
 16 14  1  0  0  0
  1  7  1  0  0  0
  1  2  1  0  0  0
  2  8  1  0  0  0
  2  6  1  0  0  0
  3  8  1  0  0  0
  3  4  1  0  0  0
  4  7  1  0  0  0
 21  5  1  0  0  0
 21 22  1  0  0  0
 23 24  2  0  0  0
 25 26  2  0  0  0
 27 22  2  0  0  0
 19 10  1  0  0  0
  8  5  1  0  0  0
 10 17  1  0  0  0
 11 18  1  0  0  0
 12 13  1  0  0  0
 14 15  2  0  0  0
  5  9  2  0  0  0
 22 23  1  0  0  0
 24 25  1  0  0  0
 26 27  1  0  0  0
 19 20  1  0  0  0
M  END
> <minimizedAffinity>
-8.57939

$$$$
CHEMBL3356065


 27 30  0  0  0  0  0  0  0  0999 V2000
   13.3649   13.1059  -19.0761 C   0  0  0  0  0  0  0  0  0  0  0  0
   12.8442   13.7439  -17.7542 C   0  0  0  0  0  0  0  0  0  0  0  0
   10.6564   13.3761  -18.8799 C   0  0  0  0  0  0  0  0  0  0  0  0
   11.2541   13.9100  -20.1925 C   0  0  0  0  0  0  0  0  0  0  0  0
   10.6823   14.8164  -16.8997 C   0  0  0  0  0  0  0  0  0  0  0  0
   13.2532   12.8332  -16.5892 C   0  0  0  0  0  0  0  0  0  0  0  0
   12.6934   13.6115  -20.2757 N   0  0  0  0  0  0  0  0  0  0  0  0
   11.3777   13.9640  -17.7467 N   0  0  0  0  0  0  0  0  0  0  0  0
    9.4491   14.8959  -16.9377 O   0  0  0  0  0  0  0  0  0  0  0  0
   14.2063   15.2454  -23.2066 C   0  0  0  0  0  0  0  0  0  0  0  0
   14.7396   16.3549  -21.3690 C   0  0  0  0  0  0  0  0  0  0  0  0
   13.4158   14.4573  -21.1041 C   0  0  0  0  0  0  0  0  0  0  0  0
   13.4937   14.2835  -22.5047 C   0  0  0  0  0  0  0  0  0  0  0  0
   13.0555   13.3124  -23.4724 C   0  0  0  0  0  0  0  0  0  0  0  0
   13.4739   13.7627  -24.7137 C   0  0  0  0  0  0  0  0  0  0  0  0
   12.3223   12.0441  -23.2215 C   0  0  0  0  0  0  0  0  0  0  0  0
   14.8450   16.3117  -22.7059 N   0  0  0  0  0  0  0  0  0  0  0  0
   14.0863   15.5035  -20.5543 N   0  0  0  0  0  0  0  0  0  0  0  0
   14.1638   14.9313  -24.5352 N   0  0  0  0  0  0  0  0  0  0  0  0
   14.6050   15.4830  -25.2563 H   0  0  0  0  0  0  0  0  0  0  0  0
   11.4569   15.7008  -15.9295 C   0  0  0  0  0  0  0  0  0  0  0  0
   11.3501   15.2077  -14.5044 C   0  0  0  0  0  0  0  0  0  0  0  0
   12.1792   15.7268  -13.5005 C   0  0  0  0  0  0  0  0  0  0  0  0
   12.0549   15.2889  -12.1815 C   0  0  0  0  0  0  0  0  0  0  0  0
   11.1012   14.3290  -11.8514 C   0  0  0  0  0  0  0  0  0  0  0  0
   10.2675   13.8091  -12.8393 C   0  0  0  0  0  0  0  0  0  0  0  0
   10.3879   14.2486  -14.1586 C   0  0  0  0  0  0  0  0  0  0  0  0
 11 17  2  0  0  0
 12 18  2  0  0  0
 12  7  1  0  0  0
 13 14  1  0  0  0
 13 10  2  0  0  0
 15 19  1  0  0  0
 16 14  1  0  0  0
  1  7  1  0  0  0
  1  2  1  0  0  0
  2  8  1  0  0  0
  2  6  1  0  0  0
  3  8  1  0  0  0
  3  4  1  0  0  0
  4  7  1  0  0  0
 21  5  1  0  0  0
 21 22  1  0  0  0
 23 24  2  0  0  0
 25 26  2  0  0  0
 27 22  2  0  0  0
 19 10  1  0  0  0
  8  5  1  0  0  0
 10 17  1  0  0  0
 11 18  1  0  0  0
 12 13  1  0  0  0
 14 15  2  0  0  0
  5  9  2  0  0  0
 22 23  1  0  0  0
 24 25  1  0  0  0
 26 27  1  0  0  0
 19 20  1  0  0  0
M  END
> <minimizedAffinity>
-8.39506

$$$$
CHEMBL3356065


 27 30  0  0  0  0  0  0  0  0999 V2000
   10.3226   14.6424  -15.9313 C   0  0  0  0  0  0  0  0  0  0  0  0
   10.0865   14.3331  -17.4394 C   0  0  0  0  0  0  0  0  0  0  0  0
   10.6968   12.0445  -16.6786 C   0  0  0  0  0  0  0  0  0  0  0  0
   11.8479   12.6385  -15.8496 C   0  0  0  0  0  0  0  0  0  0  0  0
   10.6442   12.4586  -19.0915 C   0  0  0  0  0  0  0  0  0  0  0  0
    8.6223   14.6504  -17.7699 C   0  0  0  0  0  0  0  0  0  0  0  0
   11.5136   13.9928  -15.3788 N   0  0  0  0  0  0  0  0  0  0  0  0
   10.4070   12.9330  -17.8085 N   0  0  0  0  0  0  0  0  0  0  0  0
   10.8567   11.2595  -19.3050 O   0  0  0  0  0  0  0  0  0  0  0  0
   14.0638   16.0191  -13.6644 C   0  0  0  0  0  0  0  0  0  0  0  0
   14.5344   15.8869  -15.8215 C   0  0  0  0  0  0  0  0  0  0  0  0
   12.6078   14.7972  -15.0973 C   0  0  0  0  0  0  0  0  0  0  0  0
   12.9014   15.2733  -13.7992 C   0  0  0  0  0  0  0  0  0  0  0  0
   12.2824   15.2427  -12.5002 C   0  0  0  0  0  0  0  0  0  0  0  0
   13.1262   15.9199  -11.6353 C   0  0  0  0  0  0  0  0  0  0  0  0
   10.9762   14.6390  -12.1283 C   0  0  0  0  0  0  0  0  0  0  0  0
   14.9317   16.3551  -14.6285 N   0  0  0  0  0  0  0  0  0  0  0  0
   13.4419   15.1529  -16.1094 N   0  0  0  0  0  0  0  0  0  0  0  0
   14.1972   16.3789  -12.3534 N   0  0  0  0  0  0  0  0  0  0  0  0
   14.9686   16.9239  -11.9971 H   0  0  0  0  0  0  0  0  0  0  0  0
   10.6819   13.4414  -20.2561 C   0  0  0  0  0  0  0  0  0  0  0  0
   11.5520   12.9452  -21.3884 C   0  0  0  0  0  0  0  0  0  0  0  0
   12.9458   12.8878  -21.2513 C   0  0  0  0  0  0  0  0  0  0  0  0
   13.7409   12.4007  -22.2894 C   0  0  0  0  0  0  0  0  0  0  0  0
   13.1523   11.9653  -23.4744 C   0  0  0  0  0  0  0  0  0  0  0  0
   11.7676   12.0124  -23.6208 C   0  0  0  0  0  0  0  0  0  0  0  0
   10.9704   12.4960  -22.5822 C   0  0  0  0  0  0  0  0  0  0  0  0
 11 17  2  0  0  0
 12 18  2  0  0  0
 12  7  1  0  0  0
 13 14  1  0  0  0
 13 10  2  0  0  0
 15 19  1  0  0  0
 16 14  1  0  0  0
  1  7  1  0  0  0
  1  2  1  0  0  0
  2  8  1  0  0  0
  2  6  1  0  0  0
  3  8  1  0  0  0
  3  4  1  0  0  0
  4  7  1  0  0  0
 21  5  1  0  0  0
 21 22  1  0  0  0
 23 24  2  0  0  0
 25 26  2  0  0  0
 27 22  2  0  0  0
 19 10  1  0  0  0
  8  5  1  0  0  0
 10 17  1  0  0  0
 11 18  1  0  0  0
 12 13  1  0  0  0
 14 15  2  0  0  0
  5  9  2  0  0  0
 22 23  1  0  0  0
 24 25  1  0  0  0
 26 27  1  0  0  0
 19 20  1  0  0  0
M  END
> <minimizedAffinity>
-8.24967

$$$$
CHEMBL3356065


 27 30  0  0  0  0  0  0  0  0999 V2000
   12.3053   12.2270  -17.2559 C   0  0  0  0  0  0  0  0  0  0  0  0
   11.8149   12.2609  -15.7781 C   0  0  0  0  0  0  0  0  0  0  0  0
    9.9234   13.4887  -16.8289 C   0  0  0  0  0  0  0  0  0  0  0  0
   10.9277   14.2960  -17.6684 C   0  0  0  0  0  0  0  0  0  0  0  0
   10.1011   13.5584  -14.3875 C   0  0  0  0  0  0  0  0  0  0  0  0
   11.6055   10.8152  -15.3095 C   0  0  0  0  0  0  0  0  0  0  0  0
   12.1302   13.4987  -17.9614 N   0  0  0  0  0  0  0  0  0  0  0  0
   10.5730   13.0493  -15.5898 N   0  0  0  0  0  0  0  0  0  0  0  0
    9.0254   14.1645  -14.3236 O   0  0  0  0  0  0  0  0  0  0  0  0
   14.6765   15.6021  -19.5865 C   0  0  0  0  0  0  0  0  0  0  0  0
   15.2719   15.1794  -17.4987 C   0  0  0  0  0  0  0  0  0  0  0  0
   13.2695   14.2423  -18.2309 C   0  0  0  0  0  0  0  0  0  0  0  0
   13.5218   14.8388  -19.4872 C   0  0  0  0  0  0  0  0  0  0  0  0
   12.9107   14.8507  -20.7903 C   0  0  0  0  0  0  0  0  0  0  0  0
   13.6920   15.6637  -21.5948 C   0  0  0  0  0  0  0  0  0  0  0  0
   11.6951   14.1187  -21.2323 C   0  0  0  0  0  0  0  0  0  0  0  0
   15.5901   15.8239  -18.6316 N   0  0  0  0  0  0  0  0  0  0  0  0
   14.1947   14.4093  -17.2498 N   0  0  0  0  0  0  0  0  0  0  0  0
   14.7511   16.1110  -20.8519 N   0  0  0  0  0  0  0  0  0  0  0  0
   15.4999   16.7066  -21.1737 H   0  0  0  0  0  0  0  0  0  0  0  0
   10.9441   13.4009  -13.1274 C   0  0  0  0  0  0  0  0  0  0  0  0
   11.9525   14.5172  -12.9770 C   0  0  0  0  0  0  0  0  0  0  0  0
   12.2946   15.0105  -11.7104 C   0  0  0  0  0  0  0  0  0  0  0  0
   13.2481   16.0203  -11.5766 C   0  0  0  0  0  0  0  0  0  0  0  0
   13.8703   16.5472  -12.7060 C   0  0  0  0  0  0  0  0  0  0  0  0
   13.5426   16.0617  -13.9702 C   0  0  0  0  0  0  0  0  0  0  0  0
   12.5917   15.0490  -14.1057 C   0  0  0  0  0  0  0  0  0  0  0  0
 11 17  2  0  0  0
 12 18  2  0  0  0
 12  7  1  0  0  0
 13 14  1  0  0  0
 13 10  2  0  0  0
 15 19  1  0  0  0
 16 14  1  0  0  0
  1  7  1  0  0  0
  1  2  1  0  0  0
  2  8  1  0  0  0
  2  6  1  0  0  0
  3  8  1  0  0  0
  3  4  1  0  0  0
  4  7  1  0  0  0
 21  5  1  0  0  0
 21 22  1  0  0  0
 23 24  2  0  0  0
 25 26  2  0  0  0
 27 22  2  0  0  0
 19 10  1  0  0  0
  8  5  1  0  0  0
 10 17  1  0  0  0
 11 18  1  0  0  0
 12 13  1  0  0  0
 14 15  2  0  0  0
  5  9  2  0  0  0
 22 23  1  0  0  0
 24 25  1  0  0  0
 26 27  1  0  0  0
 19 20  1  0  0  0
M  END
> <minimizedAffinity>
-8.13837

$$$$
CHEMBL3356065


 27 30  0  0  0  0  0  0  0  0999 V2000
   12.0058   13.1161  -15.6008 C   0  0  0  0  0  0  0  0  0  0  0  0
   10.8726   12.6189  -16.5465 C   0  0  0  0  0  0  0  0  0  0  0  0
   10.8248   15.0340  -17.1417 C   0  0  0  0  0  0  0  0  0  0  0  0
   10.9276   15.3929  -15.6498 C   0  0  0  0  0  0  0  0  0  0  0  0
    8.9538   13.6454  -17.8952 C   0  0  0  0  0  0  0  0  0  0  0  0
   11.4791   11.6129  -17.5332 C   0  0  0  0  0  0  0  0  0  0  0  0
   11.6882   14.3699  -14.9132 N   0  0  0  0  0  0  0  0  0  0  0  0
   10.1960   13.7165  -17.2792 N   0  0  0  0  0  0  0  0  0  0  0  0
    8.4928   14.6035  -18.5261 O   0  0  0  0  0  0  0  0  0  0  0  0
   11.7200   14.8744  -11.2672 C   0  0  0  0  0  0  0  0  0  0  0  0
   10.0655   13.5160  -11.8234 C   0  0  0  0  0  0  0  0  0  0  0  0
   11.4081   14.3016  -13.5565 C   0  0  0  0  0  0  0  0  0  0  0  0
   12.1578   14.9941  -12.5786 C   0  0  0  0  0  0  0  0  0  0  0  0
   13.3456   15.8061  -12.5405 C   0  0  0  0  0  0  0  0  0  0  0  0
   13.5343   16.1830  -11.2211 C   0  0  0  0  0  0  0  0  0  0  0  0
   14.2398   16.1647  -13.6722 C   0  0  0  0  0  0  0  0  0  0  0  0
   10.6772   14.1620  -10.8191 N   0  0  0  0  0  0  0  0  0  0  0  0
   10.3687   13.5340  -13.1361 N   0  0  0  0  0  0  0  0  0  0  0  0
   12.5431   15.6148  -10.4672 N   0  0  0  0  0  0  0  0  0  0  0  0
   12.4299   15.6949   -9.4673 H   0  0  0  0  0  0  0  0  0  0  0  0
    8.1242   12.3739  -17.7590 C   0  0  0  0  0  0  0  0  0  0  0  0
    8.1101   11.5668  -19.0372 C   0  0  0  0  0  0  0  0  0  0  0  0
    9.1597   11.6655  -19.9609 C   0  0  0  0  0  0  0  0  0  0  0  0
    9.1550   10.8954  -21.1244 C   0  0  0  0  0  0  0  0  0  0  0  0
    8.1028   10.0184  -21.3771 C   0  0  0  0  0  0  0  0  0  0  0  0
    7.0561    9.9075  -20.4641 C   0  0  0  0  0  0  0  0  0  0  0  0
    7.0609   10.6743  -19.2979 C   0  0  0  0  0  0  0  0  0  0  0  0
 11 17  2  0  0  0
 12 18  2  0  0  0
 12  7  1  0  0  0
 13 14  1  0  0  0
 13 10  2  0  0  0
 15 19  1  0  0  0
 16 14  1  0  0  0
  1  7  1  0  0  0
  1  2  1  0  0  0
  2  8  1  0  0  0
  2  6  1  0  0  0
  3  8  1  0  0  0
  3  4  1  0  0  0
  4  7  1  0  0  0
 21  5  1  0  0  0
 21 22  1  0  0  0
 23 24  2  0  0  0
 25 26  2  0  0  0
 27 22  2  0  0  0
 19 10  1  0  0  0
  8  5  1  0  0  0
 10 17  1  0  0  0
 11 18  1  0  0  0
 12 13  1  0  0  0
 14 15  2  0  0  0
  5  9  2  0  0  0
 22 23  1  0  0  0
 24 25  1  0  0  0
 26 27  1  0  0  0
 19 20  1  0  0  0
M  END
> <minimizedAffinity>
-8.11084

$$$$
CHEMBL3356065


 27 30  0  0  0  0  0  0  0  0999 V2000
   10.9693   13.7274  -19.5111 C   0  0  0  0  0  0  0  0  0  0  0  0
   11.9831   14.5280  -18.6411 C   0  0  0  0  0  0  0  0  0  0  0  0
   12.6250   12.2279  -17.9434 C   0  0  0  0  0  0  0  0  0  0  0  0
   11.1365   11.8584  -17.8295 C   0  0  0  0  0  0  0  0  0  0  0  0
   13.4826   14.0955  -16.6117 C   0  0  0  0  0  0  0  0  0  0  0  0
   12.9057   15.3138  -19.5819 C   0  0  0  0  0  0  0  0  0  0  0  0
   10.3292   12.6204  -18.7967 N   0  0  0  0  0  0  0  0  0  0  0  0
   12.7819   13.6705  -17.7324 N   0  0  0  0  0  0  0  0  0  0  0  0
   14.1621   13.3095  -15.9416 O   0  0  0  0  0  0  0  0  0  0  0  0
    6.6986   12.1424  -18.4239 C   0  0  0  0  0  0  0  0  0  0  0  0
    7.3477   13.9073  -17.2595 C   0  0  0  0  0  0  0  0  0  0  0  0
    8.9946   12.7699  -18.4500 C   0  0  0  0  0  0  0  0  0  0  0  0
    7.9778   11.8994  -18.9039 C   0  0  0  0  0  0  0  0  0  0  0  0
    7.8694   10.7875  -19.8114 C   0  0  0  0  0  0  0  0  0  0  0  0
    6.5463   10.3784  -19.7919 C   0  0  0  0  0  0  0  0  0  0  0  0
    8.9412   10.1882  -20.6488 C   0  0  0  0  0  0  0  0  0  0  0  0
    6.3134   13.1200  -17.5923 N   0  0  0  0  0  0  0  0  0  0  0  0
    8.6359   13.7996  -17.6391 N   0  0  0  0  0  0  0  0  0  0  0  0
    5.8548   11.2045  -18.9475 N   0  0  0  0  0  0  0  0  0  0  0  0
    4.8668   11.1635  -18.7448 H   0  0  0  0  0  0  0  0  0  0  0  0
   13.3816   15.5525  -16.1758 C   0  0  0  0  0  0  0  0  0  0  0  0
   13.2356   15.6869  -14.6771 C   0  0  0  0  0  0  0  0  0  0  0  0
   12.0700   15.2578  -14.0275 C   0  0  0  0  0  0  0  0  0  0  0  0
   11.9538   15.3571  -12.6405 C   0  0  0  0  0  0  0  0  0  0  0  0
   13.0004   15.8850  -11.8882 C   0  0  0  0  0  0  0  0  0  0  0  0
   14.1662   16.3102  -12.5217 C   0  0  0  0  0  0  0  0  0  0  0  0
   14.2857   16.2083  -13.9086 C   0  0  0  0  0  0  0  0  0  0  0  0
 11 17  2  0  0  0
 12 18  2  0  0  0
 12  7  1  0  0  0
 13 14  1  0  0  0
 13 10  2  0  0  0
 15 19  1  0  0  0
 16 14  1  0  0  0
  1  7  1  0  0  0
  1  2  1  0  0  0
  2  8  1  0  0  0
  2  6  1  0  0  0
  3  8  1  0  0  0
  3  4  1  0  0  0
  4  7  1  0  0  0
 21  5  1  0  0  0
 21 22  1  0  0  0
 23 24  2  0  0  0
 25 26  2  0  0  0
 27 22  2  0  0  0
 19 10  1  0  0  0
  8  5  1  0  0  0
 10 17  1  0  0  0
 11 18  1  0  0  0
 12 13  1  0  0  0
 14 15  2  0  0  0
  5  9  2  0  0  0
 22 23  1  0  0  0
 24 25  1  0  0  0
 26 27  1  0  0  0
 19 20  1  0  0  0
M  END
> <minimizedAffinity>
-8.00830

$$$$
CHEMBL3356065


 27 30  0  0  0  0  0  0  0  0999 V2000
   11.0226   11.8833  -17.9072 C   0  0  0  0  0  0  0  0  0  0  0  0
   11.0045   12.0004  -16.3543 C   0  0  0  0  0  0  0  0  0  0  0  0
    9.0678   13.4765  -16.8639 C   0  0  0  0  0  0  0  0  0  0  0  0
    9.8745   14.1243  -18.0017 C   0  0  0  0  0  0  0  0  0  0  0  0
    9.9733   13.5421  -14.5896 C   0  0  0  0  0  0  0  0  0  0  0  0
   10.7529   10.6037  -15.7715 C   0  0  0  0  0  0  0  0  0  0  0  0
   10.8168   13.1606  -18.5942 N   0  0  0  0  0  0  0  0  0  0  0  0
    9.9925   12.9599  -15.8498 N   0  0  0  0  0  0  0  0  0  0  0  0
    9.0569   14.2963  -14.2433 O   0  0  0  0  0  0  0  0  0  0  0  0
   13.3276   14.1802  -21.0852 C   0  0  0  0  0  0  0  0  0  0  0  0
   13.7536   15.1554  -19.1463 C   0  0  0  0  0  0  0  0  0  0  0  0
   11.9127   13.7312  -19.2244 C   0  0  0  0  0  0  0  0  0  0  0  0
   12.2343   13.4910  -20.5797 C   0  0  0  0  0  0  0  0  0  0  0  0
   11.7512   12.6528  -21.6452 C   0  0  0  0  0  0  0  0  0  0  0  0
   12.5371   12.9174  -22.7546 C   0  0  0  0  0  0  0  0  0  0  0  0
   10.6464   11.6599  -21.5927 C   0  0  0  0  0  0  0  0  0  0  0  0
   14.1251   15.0347  -20.4299 N   0  0  0  0  0  0  0  0  0  0  0  0
   12.7236   14.5591  -18.5148 N   0  0  0  0  0  0  0  0  0  0  0  0
   13.4809   13.8432  -22.4000 N   0  0  0  0  0  0  0  0  0  0  0  0
   14.2063   14.2174  -22.9940 H   0  0  0  0  0  0  0  0  0  0  0  0
   11.1248   13.2770  -13.6267 C   0  0  0  0  0  0  0  0  0  0  0  0
   12.1268   14.4090  -13.6163 C   0  0  0  0  0  0  0  0  0  0  0  0
   12.4109   15.1061  -12.4338 C   0  0  0  0  0  0  0  0  0  0  0  0
   13.3587   16.1300  -12.4248 C   0  0  0  0  0  0  0  0  0  0  0  0
   14.0330   16.4677  -13.5958 C   0  0  0  0  0  0  0  0  0  0  0  0
   13.7632   15.7787  -14.7764 C   0  0  0  0  0  0  0  0  0  0  0  0
   12.8181   14.7518  -14.7867 C   0  0  0  0  0  0  0  0  0  0  0  0
 11 17  2  0  0  0
 12 18  2  0  0  0
 12  7  1  0  0  0
 13 14  1  0  0  0
 13 10  2  0  0  0
 15 19  1  0  0  0
 16 14  1  0  0  0
  1  7  1  0  0  0
  1  2  1  0  0  0
  2  8  1  0  0  0
  2  6  1  0  0  0
  3  8  1  0  0  0
  3  4  1  0  0  0
  4  7  1  0  0  0
 21  5  1  0  0  0
 21 22  1  0  0  0
 23 24  2  0  0  0
 25 26  2  0  0  0
 27 22  2  0  0  0
 19 10  1  0  0  0
  8  5  1  0  0  0
 10 17  1  0  0  0
 11 18  1  0  0  0
 12 13  1  0  0  0
 14 15  2  0  0  0
  5  9  2  0  0  0
 22 23  1  0  0  0
 24 25  1  0  0  0
 26 27  1  0  0  0
 19 20  1  0  0  0
M  END
> <minimizedAffinity>
-8.00702

$$$$
CHEMBL3356065


 27 30  0  0  0  0  0  0  0  0999 V2000
   10.1567   14.2985  -15.9221 C   0  0  0  0  0  0  0  0  0  0  0  0
    9.9169   14.1552  -17.4543 C   0  0  0  0  0  0  0  0  0  0  0  0
   10.8471   11.8916  -17.0074 C   0  0  0  0  0  0  0  0  0  0  0  0
   11.9349   12.5247  -16.1235 C   0  0  0  0  0  0  0  0  0  0  0  0
   10.6658   12.5995  -19.3446 C   0  0  0  0  0  0  0  0  0  0  0  0
    8.4142   14.3118  -17.7206 C   0  0  0  0  0  0  0  0  0  0  0  0
   11.4395   13.7503  -15.4753 N   0  0  0  0  0  0  0  0  0  0  0  0
   10.4078   12.8698  -18.0074 N   0  0  0  0  0  0  0  0  0  0  0  0
   11.0280   11.4772  -19.7158 O   0  0  0  0  0  0  0  0  0  0  0  0
   13.6532   15.9786  -13.5562 C   0  0  0  0  0  0  0  0  0  0  0  0
   14.2776   15.9441  -15.6778 C   0  0  0  0  0  0  0  0  0  0  0  0
   12.4262   14.6523  -15.1059 C   0  0  0  0  0  0  0  0  0  0  0  0
   12.5831   15.1247  -13.7830 C   0  0  0  0  0  0  0  0  0  0  0  0
   11.8850   15.0026  -12.5303 C   0  0  0  0  0  0  0  0  0  0  0  0
   12.5968   15.7397  -11.5984 C   0  0  0  0  0  0  0  0  0  0  0  0
   10.6240   14.2640  -12.2592 C   0  0  0  0  0  0  0  0  0  0  0  0
   14.5454   16.4214  -14.4527 N   0  0  0  0  0  0  0  0  0  0  0  0
   13.2860   15.1124  -16.0523 N   0  0  0  0  0  0  0  0  0  0  0  0
   13.6619   16.3192  -12.2335 N   0  0  0  0  0  0  0  0  0  0  0  0
   14.3491   16.9294  -11.8160 H   0  0  0  0  0  0  0  0  0  0  0  0
   10.5375   13.7189  -20.3711 C   0  0  0  0  0  0  0  0  0  0  0  0
   11.8342   14.4752  -20.5501 C   0  0  0  0  0  0  0  0  0  0  0  0
   12.7761   14.5413  -19.5142 C   0  0  0  0  0  0  0  0  0  0  0  0
   13.9840   15.2157  -19.6963 C   0  0  0  0  0  0  0  0  0  0  0  0
   14.2639   15.8301  -20.9147 C   0  0  0  0  0  0  0  0  0  0  0  0
   13.3379   15.7670  -21.9538 C   0  0  0  0  0  0  0  0  0  0  0  0
   12.1307   15.0898  -21.7747 C   0  0  0  0  0  0  0  0  0  0  0  0
 11 17  2  0  0  0
 12 18  2  0  0  0
 12  7  1  0  0  0
 13 14  1  0  0  0
 13 10  2  0  0  0
 15 19  1  0  0  0
 16 14  1  0  0  0
  1  7  1  0  0  0
  1  2  1  0  0  0
  2  8  1  0  0  0
  2  6  1  0  0  0
  3  8  1  0  0  0
  3  4  1  0  0  0
  4  7  1  0  0  0
 21  5  1  0  0  0
 21 22  1  0  0  0
 23 24  2  0  0  0
 25 26  2  0  0  0
 27 22  2  0  0  0
 19 10  1  0  0  0
  8  5  1  0  0  0
 10 17  1  0  0  0
 11 18  1  0  0  0
 12 13  1  0  0  0
 14 15  2  0  0  0
  5  9  2  0  0  0
 22 23  1  0  0  0
 24 25  1  0  0  0
 26 27  1  0  0  0
 19 20  1  0  0  0
M  END
> <minimizedAffinity>
-7.81373

$$$$
CHEMBL1630790


 28 31  0  0  0  0  0  0  0  0999 V2000
    9.9536   12.1284  -16.9835 N   0  0  0  0  0  0  0  0  0  0  0  0
   11.0103   13.4476  -15.0989 C   0  0  0  0  0  0  0  0  0  0  0  0
    9.8007   13.2694  -16.0573 C   0  0  0  0  0  0  0  0  0  0  0  0
   10.2324   10.9010  -16.2456 C   0  0  0  0  0  0  0  0  0  0  0  0
   11.5086   10.9930  -15.3885 C   0  0  0  0  0  0  0  0  0  0  0  0
   12.1389   12.4023  -15.2943 C   0  0  0  0  0  0  0  0  0  0  0  0
   13.0873   12.6311  -16.4759 C   0  0  0  0  0  0  0  0  0  0  0  0
   11.4926   14.8392  -14.9352 N   0  0  0  0  0  0  0  0  0  0  0  0
   11.1183   15.8073  -15.9501 C   0  0  0  0  0  0  0  0  0  0  0  0
   11.7831   14.9851  -12.5972 N   0  0  0  0  0  0  0  0  0  0  0  0
   13.7022   15.8807  -11.4555 N   0  0  0  0  0  0  0  0  0  0  0  0
   15.3497   16.7609  -12.9312 N   0  0  0  0  0  0  0  0  0  0  0  0
   12.4986   15.3016  -11.5056 C   0  0  0  0  0  0  0  0  0  0  0  0
   14.1524   16.1499  -12.6868 C   0  0  0  0  0  0  0  0  0  0  0  0
   15.5167   16.9332  -14.2772 C   0  0  0  0  0  0  0  0  0  0  0  0
   14.4055   16.4051  -14.9014 C   0  0  0  0  0  0  0  0  0  0  0  0
   13.5272   15.8810  -13.9008 C   0  0  0  0  0  0  0  0  0  0  0  0
   12.2632   15.2324  -13.8473 C   0  0  0  0  0  0  0  0  0  0  0  0
   15.9877   17.0468  -12.2021 H   0  0  0  0  0  0  0  0  0  0  0  0
    8.7965   12.0070  -17.8764 C   0  0  0  0  0  0  0  0  0  0  0  0
    9.2245   11.7765  -19.3067 C   0  0  0  0  0  0  0  0  0  0  0  0
    8.3956   11.1090  -20.2109 C   0  0  0  0  0  0  0  0  0  0  0  0
    8.7931   10.9259  -21.5324 C   0  0  0  0  0  0  0  0  0  0  0  0
   10.0248   11.3974  -21.9767 C   0  0  0  0  0  0  0  0  0  0  0  0
   10.8652   12.0657  -21.0879 C   0  0  0  0  0  0  0  0  0  0  0  0
   10.4644   12.2593  -19.7627 C   0  0  0  0  0  0  0  0  0  0  0  0
    7.9892   10.2878  -22.3949 F   0  0  0  0  0  0  0  0  0  0  0  0
    7.2043   10.6403  -19.8090 F   0  0  0  0  0  0  0  0  0  0  0  0
 12 15  1  0  0  0
 13 11  2  0  0  0
 14 12  1  0  0  0
 16 17  1  0  0  0
 17 14  2  0  0  0
 18  8  1  0  0  0
 18 10  2  0  0  0
  2  8  1  0  0  0
  2  3  1  0  0  0
  3  1  1  0  0  0
  4  1  1  0  0  0
  4  5  1  0  0  0
  5  6  1  0  0  0
  6  7  1  0  0  0
  6  2  1  0  0  0
 20  1  1  0  0  0
 20 21  1  0  0  0
 22 23  2  0  0  0
 22 28  1  0  0  0
 23 27  1  0  0  0
 24 25  2  0  0  0
 26 21  2  0  0  0
  9  8  1  0  0  0
 13 10  1  0  0  0
 14 11  1  0  0  0
 15 16  2  0  0  0
 17 18  1  0  0  0
 21 22  1  0  0  0
 23 24  1  0  0  0
 25 26  1  0  0  0
 12 19  1  0  0  0
M  END
> <minimizedAffinity>
-9.64083

$$$$
CHEMBL1630790


 28 31  0  0  0  0  0  0  0  0999 V2000
   11.7476   14.4342  -15.4693 N   0  0  0  0  0  0  0  0  0  0  0  0
   11.0456   13.3763  -17.6593 C   0  0  0  0  0  0  0  0  0  0  0  0
   11.2481   14.6793  -16.8380 C   0  0  0  0  0  0  0  0  0  0  0  0
   12.9659   13.6320  -15.5024 C   0  0  0  0  0  0  0  0  0  0  0  0
   12.7674   12.2676  -16.1884 C   0  0  0  0  0  0  0  0  0  0  0  0
   11.4039   12.0766  -16.8932 C   0  0  0  0  0  0  0  0  0  0  0  0
   10.3645   11.5637  -15.8910 C   0  0  0  0  0  0  0  0  0  0  0  0
    9.7815   13.2992  -18.4288 N   0  0  0  0  0  0  0  0  0  0  0  0
    8.6830   14.1507  -18.0097 C   0  0  0  0  0  0  0  0  0  0  0  0
   10.5614   12.5370  -20.5222 N   0  0  0  0  0  0  0  0  0  0  0  0
    9.5841   10.7870  -21.8529 N   0  0  0  0  0  0  0  0  0  0  0  0
    7.5923    9.8874  -20.9093 N   0  0  0  0  0  0  0  0  0  0  0  0
   10.4992   11.7251  -21.5903 C   0  0  0  0  0  0  0  0  0  0  0  0
    8.6584   10.7415  -20.8874 C   0  0  0  0  0  0  0  0  0  0  0  0
    6.8054   10.0988  -19.8115 C   0  0  0  0  0  0  0  0  0  0  0  0
    7.3951   11.1006  -19.0685 C   0  0  0  0  0  0  0  0  0  0  0  0
    8.5940   11.5135  -19.7312 C   0  0  0  0  0  0  0  0  0  0  0  0
    9.6339   12.4616  -19.5281 C   0  0  0  0  0  0  0  0  0  0  0  0
    7.4283    9.2210  -21.6505 H   0  0  0  0  0  0  0  0  0  0  0  0
   11.9106   15.6890  -14.7279 C   0  0  0  0  0  0  0  0  0  0  0  0
   12.1102   15.4365  -13.2519 C   0  0  0  0  0  0  0  0  0  0  0  0
   11.1504   14.7576  -12.4981 C   0  0  0  0  0  0  0  0  0  0  0  0
   11.3595   14.5106  -11.1442 C   0  0  0  0  0  0  0  0  0  0  0  0
   12.5237   14.9401  -10.5140 C   0  0  0  0  0  0  0  0  0  0  0  0
   13.4925   15.6196  -11.2508 C   0  0  0  0  0  0  0  0  0  0  0  0
   13.2892   15.8606  -12.6128 C   0  0  0  0  0  0  0  0  0  0  0  0
   10.4349   13.8542  -10.4291 F   0  0  0  0  0  0  0  0  0  0  0  0
   10.0168   14.3355  -13.0787 F   0  0  0  0  0  0  0  0  0  0  0  0
 12 15  1  0  0  0
 13 11  2  0  0  0
 14 12  1  0  0  0
 16 17  1  0  0  0
 17 14  2  0  0  0
 18  8  1  0  0  0
 18 10  2  0  0  0
  2  8  1  0  0  0
  2  3  1  0  0  0
  3  1  1  0  0  0
  4  1  1  0  0  0
  4  5  1  0  0  0
  5  6  1  0  0  0
  6  7  1  0  0  0
  6  2  1  0  0  0
 20  1  1  0  0  0
 20 21  1  0  0  0
 22 23  2  0  0  0
 22 28  1  0  0  0
 23 27  1  0  0  0
 24 25  2  0  0  0
 26 21  2  0  0  0
  9  8  1  0  0  0
 13 10  1  0  0  0
 14 11  1  0  0  0
 15 16  2  0  0  0
 17 18  1  0  0  0
 21 22  1  0  0  0
 23 24  1  0  0  0
 25 26  1  0  0  0
 12 19  1  0  0  0
M  END
> <minimizedAffinity>
-9.33890

$$$$
CHEMBL1630790


 28 31  0  0  0  0  0  0  0  0999 V2000
    9.7293   12.3614  -17.0378 N   0  0  0  0  0  0  0  0  0  0  0  0
   10.9772   13.4914  -15.1472 C   0  0  0  0  0  0  0  0  0  0  0  0
    9.6971   13.4374  -16.0258 C   0  0  0  0  0  0  0  0  0  0  0  0
    9.9974   11.0722  -16.4092 C   0  0  0  0  0  0  0  0  0  0  0  0
   11.3326   11.0448  -15.6423 C   0  0  0  0  0  0  0  0  0  0  0  0
   12.0367   12.4142  -15.4959 C   0  0  0  0  0  0  0  0  0  0  0  0
   12.9115   12.6863  -16.7241 C   0  0  0  0  0  0  0  0  0  0  0  0
   11.5377   14.8447  -14.9223 N   0  0  0  0  0  0  0  0  0  0  0  0
   11.3012   15.8513  -15.9411 C   0  0  0  0  0  0  0  0  0  0  0  0
   13.4237   15.8495  -13.9197 N   0  0  0  0  0  0  0  0  0  0  0  0
   13.8634   16.0111  -11.5599 N   0  0  0  0  0  0  0  0  0  0  0  0
   12.2187   14.9314  -10.2196 N   0  0  0  0  0  0  0  0  0  0  0  0
   14.1403   16.2291  -12.8491 C   0  0  0  0  0  0  0  0  0  0  0  0
   12.7291   15.3129  -11.4281 C   0  0  0  0  0  0  0  0  0  0  0  0
   11.0766   14.2036  -10.4070 C   0  0  0  0  0  0  0  0  0  0  0  0
   10.8497   14.1352  -11.7661 C   0  0  0  0  0  0  0  0  0  0  0  0
   11.8874   14.8558  -12.4378 C   0  0  0  0  0  0  0  0  0  0  0  0
   12.2535   15.1682  -13.7756 C   0  0  0  0  0  0  0  0  0  0  0  0
   12.6540   15.1550   -9.3360 H   0  0  0  0  0  0  0  0  0  0  0  0
    8.5089   12.3568  -17.8511 C   0  0  0  0  0  0  0  0  0  0  0  0
    8.7581   11.7629  -19.2176 C   0  0  0  0  0  0  0  0  0  0  0  0
    7.7919   10.9798  -19.8528 C   0  0  0  0  0  0  0  0  0  0  0  0
    8.0262   10.4599  -21.1227 C   0  0  0  0  0  0  0  0  0  0  0  0
    9.2280   10.7037  -21.7809 C   0  0  0  0  0  0  0  0  0  0  0  0
   10.2038   11.4830  -21.1617 C   0  0  0  0  0  0  0  0  0  0  0  0
    9.9674   12.0143  -19.8904 C   0  0  0  0  0  0  0  0  0  0  0  0
    7.0913    9.7128  -21.7271 F   0  0  0  0  0  0  0  0  0  0  0  0
    6.6257   10.7253  -19.2401 F   0  0  0  0  0  0  0  0  0  0  0  0
 12 15  1  0  0  0
 13 11  2  0  0  0
 14 12  1  0  0  0
 16 17  1  0  0  0
 17 14  2  0  0  0
 18  8  1  0  0  0
 18 10  2  0  0  0
  2  8  1  0  0  0
  2  3  1  0  0  0
  3  1  1  0  0  0
  4  1  1  0  0  0
  4  5  1  0  0  0
  5  6  1  0  0  0
  6  7  1  0  0  0
  6  2  1  0  0  0
 20  1  1  0  0  0
 20 21  1  0  0  0
 22 23  2  0  0  0
 22 28  1  0  0  0
 23 27  1  0  0  0
 24 25  2  0  0  0
 26 21  2  0  0  0
  9  8  1  0  0  0
 13 10  1  0  0  0
 14 11  1  0  0  0
 15 16  2  0  0  0
 17 18  1  0  0  0
 21 22  1  0  0  0
 23 24  1  0  0  0
 25 26  1  0  0  0
 12 19  1  0  0  0
M  END
> <minimizedAffinity>
-9.33788

$$$$
CHEMBL1630790


 28 31  0  0  0  0  0  0  0  0999 V2000
   11.4977   14.3751  -15.6759 N   0  0  0  0  0  0  0  0  0  0  0  0
   10.2980   13.1614  -17.5456 C   0  0  0  0  0  0  0  0  0  0  0  0
   10.5535   14.5029  -16.8051 C   0  0  0  0  0  0  0  0  0  0  0  0
   12.7475   13.7651  -16.1171 C   0  0  0  0  0  0  0  0  0  0  0  0
   12.5485   12.3673  -16.7321 C   0  0  0  0  0  0  0  0  0  0  0  0
   11.0766   11.9529  -16.9641 C   0  0  0  0  0  0  0  0  0  0  0  0
   10.5052   11.3181  -15.6919 C   0  0  0  0  0  0  0  0  0  0  0  0
    8.8807   12.8728  -17.8684 N   0  0  0  0  0  0  0  0  0  0  0  0
    7.8596   13.5688  -17.1067 C   0  0  0  0  0  0  0  0  0  0  0  0
    7.3953   11.2328  -18.6904 N   0  0  0  0  0  0  0  0  0  0  0  0
    7.5247   10.1411  -20.8305 N   0  0  0  0  0  0  0  0  0  0  0  0
    9.4287   10.7886  -22.1042 N   0  0  0  0  0  0  0  0  0  0  0  0
    6.9663   10.3869  -19.6413 C   0  0  0  0  0  0  0  0  0  0  0  0
    8.6433   10.8587  -20.9885 C   0  0  0  0  0  0  0  0  0  0  0  0
   10.5153   11.6057  -21.9590 C   0  0  0  0  0  0  0  0  0  0  0  0
   10.4080   12.2195  -20.7282 C   0  0  0  0  0  0  0  0  0  0  0  0
    9.2053   11.7686  -20.0978 C   0  0  0  0  0  0  0  0  0  0  0  0
    8.5165   11.9838  -18.8728 C   0  0  0  0  0  0  0  0  0  0  0  0
    9.2193   10.1973  -22.8959 H   0  0  0  0  0  0  0  0  0  0  0  0
   11.6980   15.6608  -14.9994 C   0  0  0  0  0  0  0  0  0  0  0  0
   12.0343   15.4701  -13.5391 C   0  0  0  0  0  0  0  0  0  0  0  0
   11.1671   14.7919  -12.6799 C   0  0  0  0  0  0  0  0  0  0  0  0
   11.5020   14.6024  -11.3420 C   0  0  0  0  0  0  0  0  0  0  0  0
   12.7021   15.0896  -10.8331 C   0  0  0  0  0  0  0  0  0  0  0  0
   13.5797   15.7693  -11.6762 C   0  0  0  0  0  0  0  0  0  0  0  0
   13.2502   15.9528  -13.0223 C   0  0  0  0  0  0  0  0  0  0  0  0
   10.6655   13.9462  -10.5253 F   0  0  0  0  0  0  0  0  0  0  0  0
   10.0015   14.3148  -13.1426 F   0  0  0  0  0  0  0  0  0  0  0  0
 12 15  1  0  0  0
 13 11  2  0  0  0
 14 12  1  0  0  0
 16 17  1  0  0  0
 17 14  2  0  0  0
 18  8  1  0  0  0
 18 10  2  0  0  0
  2  8  1  0  0  0
  2  3  1  0  0  0
  3  1  1  0  0  0
  4  1  1  0  0  0
  4  5  1  0  0  0
  5  6  1  0  0  0
  6  7  1  0  0  0
  6  2  1  0  0  0
 20  1  1  0  0  0
 20 21  1  0  0  0
 22 23  2  0  0  0
 22 28  1  0  0  0
 23 27  1  0  0  0
 24 25  2  0  0  0
 26 21  2  0  0  0
  9  8  1  0  0  0
 13 10  1  0  0  0
 14 11  1  0  0  0
 15 16  2  0  0  0
 17 18  1  0  0  0
 21 22  1  0  0  0
 23 24  1  0  0  0
 25 26  1  0  0  0
 12 19  1  0  0  0
M  END
> <minimizedAffinity>
-9.22012

$$$$
CHEMBL1630790


 28 31  0  0  0  0  0  0  0  0999 V2000
   11.6547   14.3006  -15.7472 N   0  0  0  0  0  0  0  0  0  0  0  0
   11.4182   13.0804  -17.9525 C   0  0  0  0  0  0  0  0  0  0  0  0
   11.4662   14.4418  -17.2058 C   0  0  0  0  0  0  0  0  0  0  0  0
   12.8348   13.4932  -15.4570 C   0  0  0  0  0  0  0  0  0  0  0  0
   12.7603   12.0809  -16.0665 C   0  0  0  0  0  0  0  0  0  0  0  0
   11.5765   11.8420  -17.0328 C   0  0  0  0  0  0  0  0  0  0  0  0
   10.3356   11.4120  -16.2435 C   0  0  0  0  0  0  0  0  0  0  0  0
   10.3476   12.9497  -18.9689 N   0  0  0  0  0  0  0  0  0  0  0  0
   10.7449   12.8867  -20.3637 C   0  0  0  0  0  0  0  0  0  0  0  0
    8.4902   13.8402  -17.8161 N   0  0  0  0  0  0  0  0  0  0  0  0
    6.2499   12.9632  -17.8359 N   0  0  0  0  0  0  0  0  0  0  0  0
    6.0374   10.9514  -19.0906 N   0  0  0  0  0  0  0  0  0  0  0  0
    7.1899   13.8444  -17.4802 C   0  0  0  0  0  0  0  0  0  0  0  0
    6.7694   11.9961  -18.6014 C   0  0  0  0  0  0  0  0  0  0  0  0
    6.8466   10.1112  -19.8037 C   0  0  0  0  0  0  0  0  0  0  0  0
    8.1188   10.6442  -19.7783 C   0  0  0  0  0  0  0  0  0  0  0  0
    8.0873   11.8624  -19.0284 C   0  0  0  0  0  0  0  0  0  0  0  0
    9.0039   12.8706  -18.6226 C   0  0  0  0  0  0  0  0  0  0  0  0
    5.0488   10.8358  -18.9186 H   0  0  0  0  0  0  0  0  0  0  0  0
   11.6804   15.6080  -15.0833 C   0  0  0  0  0  0  0  0  0  0  0  0
   12.0108   15.4755  -13.6152 C   0  0  0  0  0  0  0  0  0  0  0  0
   11.1370   14.8377  -12.7320 C   0  0  0  0  0  0  0  0  0  0  0  0
   11.4664   14.7013  -11.3864 C   0  0  0  0  0  0  0  0  0  0  0  0
   12.6675   15.2026  -10.8935 C   0  0  0  0  0  0  0  0  0  0  0  0
   13.5516   15.8425  -11.7605 C   0  0  0  0  0  0  0  0  0  0  0  0
   13.2276   15.9725  -13.1142 C   0  0  0  0  0  0  0  0  0  0  0  0
   10.6237   14.0836  -10.5464 F   0  0  0  0  0  0  0  0  0  0  0  0
    9.9704   14.3482  -13.1790 F   0  0  0  0  0  0  0  0  0  0  0  0
 12 15  1  0  0  0
 13 11  2  0  0  0
 14 12  1  0  0  0
 16 17  1  0  0  0
 17 14  2  0  0  0
 18  8  1  0  0  0
 18 10  2  0  0  0
  2  8  1  0  0  0
  2  3  1  0  0  0
  3  1  1  0  0  0
  4  1  1  0  0  0
  4  5  1  0  0  0
  5  6  1  0  0  0
  6  7  1  0  0  0
  6  2  1  0  0  0
 20  1  1  0  0  0
 20 21  1  0  0  0
 22 23  2  0  0  0
 22 28  1  0  0  0
 23 27  1  0  0  0
 24 25  2  0  0  0
 26 21  2  0  0  0
  9  8  1  0  0  0
 13 10  1  0  0  0
 14 11  1  0  0  0
 15 16  2  0  0  0
 17 18  1  0  0  0
 21 22  1  0  0  0
 23 24  1  0  0  0
 25 26  1  0  0  0
 12 19  1  0  0  0
M  END
> <minimizedAffinity>
-8.82630

$$$$
CHEMBL1630790


 28 31  0  0  0  0  0  0  0  0999 V2000
   11.6271   14.1716  -16.2066 N   0  0  0  0  0  0  0  0  0  0  0  0
   10.1581   12.6378  -17.5841 C   0  0  0  0  0  0  0  0  0  0  0  0
   10.9564   13.9683  -17.5073 C   0  0  0  0  0  0  0  0  0  0  0  0
   12.4695   13.0265  -15.8780 C   0  0  0  0  0  0  0  0  0  0  0  0
   11.6835   11.7041  -15.8069 C   0  0  0  0  0  0  0  0  0  0  0  0
   10.2170   11.7824  -16.2920 C   0  0  0  0  0  0  0  0  0  0  0  0
    9.3073   12.2198  -15.1392 C   0  0  0  0  0  0  0  0  0  0  0  0
    8.8069   12.7403  -18.1841 N   0  0  0  0  0  0  0  0  0  0  0  0
    7.9720   13.8571  -17.7805 C   0  0  0  0  0  0  0  0  0  0  0  0
    7.2331   11.0925  -18.8001 N   0  0  0  0  0  0  0  0  0  0  0  0
    7.1456    9.9242  -20.9015 N   0  0  0  0  0  0  0  0  0  0  0  0
    8.9251   10.5005  -22.3740 N   0  0  0  0  0  0  0  0  0  0  0  0
    6.7064   10.2194  -19.6742 C   0  0  0  0  0  0  0  0  0  0  0  0
    8.2511   10.6206  -21.1917 C   0  0  0  0  0  0  0  0  0  0  0  0
   10.0288   11.3074  -22.3632 C   0  0  0  0  0  0  0  0  0  0  0  0
   10.0462   11.9658  -21.1510 C   0  0  0  0  0  0  0  0  0  0  0  0
    8.9050   11.5538  -20.3926 C   0  0  0  0  0  0  0  0  0  0  0  0
    8.3391   11.8214  -19.1160 C   0  0  0  0  0  0  0  0  0  0  0  0
    8.6348    9.8845  -23.1200 H   0  0  0  0  0  0  0  0  0  0  0  0
   12.3559   15.4438  -16.1749 C   0  0  0  0  0  0  0  0  0  0  0  0
   12.9204   15.7230  -14.8018 C   0  0  0  0  0  0  0  0  0  0  0  0
   14.1941   16.2727  -14.6416 C   0  0  0  0  0  0  0  0  0  0  0  0
   14.6910   16.5475  -13.3706 C   0  0  0  0  0  0  0  0  0  0  0  0
   13.9329   16.2744  -12.2359 C   0  0  0  0  0  0  0  0  0  0  0  0
   12.6595   15.7254  -12.3769 C   0  0  0  0  0  0  0  0  0  0  0  0
   12.1543   15.4572  -13.6525 C   0  0  0  0  0  0  0  0  0  0  0  0
   15.9131   17.0794  -13.2262 F   0  0  0  0  0  0  0  0  0  0  0  0
   14.9485   16.5426  -15.7179 F   0  0  0  0  0  0  0  0  0  0  0  0
 12 15  1  0  0  0
 13 11  2  0  0  0
 14 12  1  0  0  0
 16 17  1  0  0  0
 17 14  2  0  0  0
 18  8  1  0  0  0
 18 10  2  0  0  0
  2  8  1  0  0  0
  2  3  1  0  0  0
  3  1  1  0  0  0
  4  1  1  0  0  0
  4  5  1  0  0  0
  5  6  1  0  0  0
  6  7  1  0  0  0
  6  2  1  0  0  0
 20  1  1  0  0  0
 20 21  1  0  0  0
 22 23  2  0  0  0
 22 28  1  0  0  0
 23 27  1  0  0  0
 24 25  2  0  0  0
 26 21  2  0  0  0
  9  8  1  0  0  0
 13 10  1  0  0  0
 14 11  1  0  0  0
 15 16  2  0  0  0
 17 18  1  0  0  0
 21 22  1  0  0  0
 23 24  1  0  0  0
 25 26  1  0  0  0
 12 19  1  0  0  0
M  END
> <minimizedAffinity>
-8.70542

$$$$
CHEMBL1630790


 28 31  0  0  0  0  0  0  0  0999 V2000
   12.6061   15.0711  -15.2984 N   0  0  0  0  0  0  0  0  0  0  0  0
   11.6925   14.4677  -17.5808 C   0  0  0  0  0  0  0  0  0  0  0  0
   11.6378   15.4234  -16.3573 C   0  0  0  0  0  0  0  0  0  0  0  0
   13.9562   14.9836  -15.8446 C   0  0  0  0  0  0  0  0  0  0  0  0
   14.0814   13.9406  -16.9707 C   0  0  0  0  0  0  0  0  0  0  0  0
   12.7448   13.3352  -17.4597 C   0  0  0  0  0  0  0  0  0  0  0  0
   12.3629   12.1360  -16.5856 C   0  0  0  0  0  0  0  0  0  0  0  0
   10.3776   14.0225  -18.0997 N   0  0  0  0  0  0  0  0  0  0  0  0
    9.1859   14.5682  -17.4760 C   0  0  0  0  0  0  0  0  0  0  0  0
   11.2068   13.1698  -20.1386 N   0  0  0  0  0  0  0  0  0  0  0  0
   10.2829   11.3376  -21.3947 N   0  0  0  0  0  0  0  0  0  0  0  0
    8.2907   10.4510  -20.4396 N   0  0  0  0  0  0  0  0  0  0  0  0
   11.1771   12.3040  -21.1649 C   0  0  0  0  0  0  0  0  0  0  0  0
    9.3415   11.3242  -20.4435 C   0  0  0  0  0  0  0  0  0  0  0  0
    7.4814   10.7034  -19.3670 C   0  0  0  0  0  0  0  0  0  0  0  0
    8.0407   11.7518  -18.6662 C   0  0  0  0  0  0  0  0  0  0  0  0
    9.2438   12.1523  -19.3292 C   0  0  0  0  0  0  0  0  0  0  0  0
   10.2636   13.1280  -19.1573 C   0  0  0  0  0  0  0  0  0  0  0  0
    8.1510    9.7452  -21.1486 H   0  0  0  0  0  0  0  0  0  0  0  0
   12.5097   15.9902  -14.1597 C   0  0  0  0  0  0  0  0  0  0  0  0
   11.9738   15.2934  -12.9312 C   0  0  0  0  0  0  0  0  0  0  0  0
   12.7535   15.1536  -11.7811 C   0  0  0  0  0  0  0  0  0  0  0  0
   12.2373   14.5309  -10.6481 C   0  0  0  0  0  0  0  0  0  0  0  0
   10.9389   14.0301  -10.6407 C   0  0  0  0  0  0  0  0  0  0  0  0
   10.1463   14.1605  -11.7799 C   0  0  0  0  0  0  0  0  0  0  0  0
   10.6590   14.7938  -12.9159 C   0  0  0  0  0  0  0  0  0  0  0  0
   12.9913   14.4051   -9.5467 F   0  0  0  0  0  0  0  0  0  0  0  0
   14.0101   15.6236  -11.7613 F   0  0  0  0  0  0  0  0  0  0  0  0
 12 15  1  0  0  0
 13 11  2  0  0  0
 14 12  1  0  0  0
 16 17  1  0  0  0
 17 14  2  0  0  0
 18  8  1  0  0  0
 18 10  2  0  0  0
  2  8  1  0  0  0
  2  3  1  0  0  0
  3  1  1  0  0  0
  4  1  1  0  0  0
  4  5  1  0  0  0
  5  6  1  0  0  0
  6  7  1  0  0  0
  6  2  1  0  0  0
 20  1  1  0  0  0
 20 21  1  0  0  0
 22 23  2  0  0  0
 22 28  1  0  0  0
 23 27  1  0  0  0
 24 25  2  0  0  0
 26 21  2  0  0  0
  9  8  1  0  0  0
 13 10  1  0  0  0
 14 11  1  0  0  0
 15 16  2  0  0  0
 17 18  1  0  0  0
 21 22  1  0  0  0
 23 24  1  0  0  0
 25 26  1  0  0  0
 12 19  1  0  0  0
M  END
> <minimizedAffinity>
-8.65235

$$$$
CHEMBL1630790


 28 31  0  0  0  0  0  0  0  0999 V2000
   11.8911   14.5888  -15.4041 N   0  0  0  0  0  0  0  0  0  0  0  0
   11.5349   13.6537  -17.7293 C   0  0  0  0  0  0  0  0  0  0  0  0
   11.4918   14.8931  -16.7937 C   0  0  0  0  0  0  0  0  0  0  0  0
   13.2004   13.9456  -15.3744 C   0  0  0  0  0  0  0  0  0  0  0  0
   13.2428   12.6339  -16.1801 C   0  0  0  0  0  0  0  0  0  0  0  0
   11.9857   12.3435  -17.0331 C   0  0  0  0  0  0  0  0  0  0  0  0
   10.9334   11.6217  -16.1848 C   0  0  0  0  0  0  0  0  0  0  0  0
   10.3670   13.4938  -18.6275 N   0  0  0  0  0  0  0  0  0  0  0  0
    9.0979   14.0459  -18.1896 C   0  0  0  0  0  0  0  0  0  0  0  0
    9.6973   11.7499  -20.0705 N   0  0  0  0  0  0  0  0  0  0  0  0
   10.4297   11.4201  -22.3384 N   0  0  0  0  0  0  0  0  0  0  0  0
   12.0564   13.0088  -23.0431 N   0  0  0  0  0  0  0  0  0  0  0  0
    9.7115   11.1142  -21.2535 C   0  0  0  0  0  0  0  0  0  0  0  0
   11.2026   12.4890  -22.1118 C   0  0  0  0  0  0  0  0  0  0  0  0
   12.7338   14.0703  -22.5104 C   0  0  0  0  0  0  0  0  0  0  0  0
   12.2875   14.2363  -21.2156 C   0  0  0  0  0  0  0  0  0  0  0  0
   11.2922   13.2444  -20.9464 C   0  0  0  0  0  0  0  0  0  0  0  0
   10.4621   12.8566  -19.8591 C   0  0  0  0  0  0  0  0  0  0  0  0
   12.1615   12.6312  -23.9740 H   0  0  0  0  0  0  0  0  0  0  0  0
   11.8227   15.7829  -14.5554 C   0  0  0  0  0  0  0  0  0  0  0  0
   12.0122   15.4360  -13.0974 C   0  0  0  0  0  0  0  0  0  0  0  0
   11.0446   14.7157  -12.3938 C   0  0  0  0  0  0  0  0  0  0  0  0
   11.2443   14.3819  -11.0572 C   0  0  0  0  0  0  0  0  0  0  0  0
   12.4069   14.7641  -10.3945 C   0  0  0  0  0  0  0  0  0  0  0  0
   13.3835   15.4837  -11.0811 C   0  0  0  0  0  0  0  0  0  0  0  0
   13.1896   15.8121  -12.4260 C   0  0  0  0  0  0  0  0  0  0  0  0
   10.3121   13.6864  -10.3905 F   0  0  0  0  0  0  0  0  0  0  0  0
    9.9123   14.3376  -13.0065 F   0  0  0  0  0  0  0  0  0  0  0  0
 12 15  1  0  0  0
 13 11  2  0  0  0
 14 12  1  0  0  0
 16 17  1  0  0  0
 17 14  2  0  0  0
 18  8  1  0  0  0
 18 10  2  0  0  0
  2  8  1  0  0  0
  2  3  1  0  0  0
  3  1  1  0  0  0
  4  1  1  0  0  0
  4  5  1  0  0  0
  5  6  1  0  0  0
  6  7  1  0  0  0
  6  2  1  0  0  0
 20  1  1  0  0  0
 20 21  1  0  0  0
 22 23  2  0  0  0
 22 28  1  0  0  0
 23 27  1  0  0  0
 24 25  2  0  0  0
 26 21  2  0  0  0
  9  8  1  0  0  0
 13 10  1  0  0  0
 14 11  1  0  0  0
 15 16  2  0  0  0
 17 18  1  0  0  0
 21 22  1  0  0  0
 23 24  1  0  0  0
 25 26  1  0  0  0
 12 19  1  0  0  0
M  END
> <minimizedAffinity>
-8.49823

$$$$
CHEMBL1630790


 28 31  0  0  0  0  0  0  0  0999 V2000
   11.9052   14.4724  -15.7403 N   0  0  0  0  0  0  0  0  0  0  0  0
   12.2229   13.7965  -18.1591 C   0  0  0  0  0  0  0  0  0  0  0  0
   11.8894   14.9263  -17.1463 C   0  0  0  0  0  0  0  0  0  0  0  0
   13.1762   13.8307  -15.4214 C   0  0  0  0  0  0  0  0  0  0  0  0
   13.4760   12.6149  -16.3178 C   0  0  0  0  0  0  0  0  0  0  0  0
   12.5074   12.4185  -17.5075 C   0  0  0  0  0  0  0  0  0  0  0  0
   11.2868   11.6076  -17.0597 C   0  0  0  0  0  0  0  0  0  0  0  0
   11.3484   13.7349  -19.3540 N   0  0  0  0  0  0  0  0  0  0  0  0
   11.7447   14.5020  -20.5209 C   0  0  0  0  0  0  0  0  0  0  0  0
   10.1681   11.8789  -20.2106 N   0  0  0  0  0  0  0  0  0  0  0  0
    7.9570   11.1801  -19.5693 N   0  0  0  0  0  0  0  0  0  0  0  0
    6.9310   12.6351  -17.9892 N   0  0  0  0  0  0  0  0  0  0  0  0
    9.0982   11.0683  -20.2562 C   0  0  0  0  0  0  0  0  0  0  0  0
    7.9769   12.2655  -18.7866 C   0  0  0  0  0  0  0  0  0  0  0  0
    7.2315   13.8000  -17.3396 C   0  0  0  0  0  0  0  0  0  0  0  0
    8.5042   14.1693  -17.7231 C   0  0  0  0  0  0  0  0  0  0  0  0
    9.0071   13.1891  -18.6360 C   0  0  0  0  0  0  0  0  0  0  0  0
   10.1932   12.9628  -19.3867 C   0  0  0  0  0  0  0  0  0  0  0  0
    6.0690   12.1126  -17.9242 H   0  0  0  0  0  0  0  0  0  0  0  0
   11.5723   15.5666  -14.8224 C   0  0  0  0  0  0  0  0  0  0  0  0
   11.3893   15.0656  -13.4090 C   0  0  0  0  0  0  0  0  0  0  0  0
   12.2872   15.4118  -12.3970 C   0  0  0  0  0  0  0  0  0  0  0  0
   12.0917   14.9627  -11.0940 C   0  0  0  0  0  0  0  0  0  0  0  0
   11.0035   14.1557  -10.7753 C   0  0  0  0  0  0  0  0  0  0  0  0
   10.0972   13.8000  -11.7728 C   0  0  0  0  0  0  0  0  0  0  0  0
   10.2860   14.2574  -13.0803 C   0  0  0  0  0  0  0  0  0  0  0  0
   12.9562   15.3036  -10.1277 F   0  0  0  0  0  0  0  0  0  0  0  0
   13.3473   16.1854  -12.6766 F   0  0  0  0  0  0  0  0  0  0  0  0
 12 15  1  0  0  0
 13 11  2  0  0  0
 14 12  1  0  0  0
 16 17  1  0  0  0
 17 14  2  0  0  0
 18  8  1  0  0  0
 18 10  2  0  0  0
  2  8  1  0  0  0
  2  3  1  0  0  0
  3  1  1  0  0  0
  4  1  1  0  0  0
  4  5  1  0  0  0
  5  6  1  0  0  0
  6  7  1  0  0  0
  6  2  1  0  0  0
 20  1  1  0  0  0
 20 21  1  0  0  0
 22 23  2  0  0  0
 22 28  1  0  0  0
 23 27  1  0  0  0
 24 25  2  0  0  0
 26 21  2  0  0  0
  9  8  1  0  0  0
 13 10  1  0  0  0
 14 11  1  0  0  0
 15 16  2  0  0  0
 17 18  1  0  0  0
 21 22  1  0  0  0
 23 24  1  0  0  0
 25 26  1  0  0  0
 12 19  1  0  0  0
M  END
> <minimizedAffinity>
-7.88186

$$$$
CHEMBL4167162


 29 32  0  0  0  0  0  0  0  0999 V2000
   10.2007   13.9009  -14.9341 C   0  0  0  0  0  0  0  0  0  0  0  0
    9.5644   13.5721  -13.7424 C   0  0  0  0  0  0  0  0  0  0  0  0
   10.1340   13.9435  -12.5173 C   0  0  0  0  0  0  0  0  0  0  0  0
   11.3370   14.6358  -12.4377 C   0  0  0  0  0  0  0  0  0  0  0  0
   11.9982   14.9775  -13.6245 C   0  0  0  0  0  0  0  0  0  0  0  0
   11.4015   14.6065  -14.8623 C   0  0  0  0  0  0  0  0  0  0  0  0
   13.2262   15.6695  -13.4705 C   0  0  0  0  0  0  0  0  0  0  0  0
   12.9697   15.6068  -11.1959 C   0  0  0  0  0  0  0  0  0  0  0  0
   13.6971   15.9835  -12.2507 N   0  0  0  0  0  0  0  0  0  0  0  0
   11.8098   14.9446  -11.2295 N   0  0  0  0  0  0  0  0  0  0  0  0
    9.6673   12.2716  -16.7608 C   0  0  0  0  0  0  0  0  0  0  0  0
    9.5936   13.5175  -16.1497 N   0  0  0  0  0  0  0  0  0  0  0  0
   10.2234   11.2751  -16.3023 O   0  0  0  0  0  0  0  0  0  0  0  0
    9.0263   14.2146  -16.6145 H   0  0  0  0  0  0  0  0  0  0  0  0
    9.0112   12.2262  -18.1436 C   0  0  0  0  0  0  0  0  0  0  0  0
    9.3945   11.3685  -20.4115 C   0  0  0  0  0  0  0  0  0  0  0  0
   10.4760   11.5691  -21.4654 C   0  0  0  0  0  0  0  0  0  0  0  0
   11.4388   12.5905  -20.8765 C   0  0  0  0  0  0  0  0  0  0  0  0
   10.8130   13.0129  -19.5600 C   0  0  0  0  0  0  0  0  0  0  0  0
    9.9954   11.8615  -19.1736 N   0  0  0  0  0  0  0  0  0  0  0  0
   13.9606   16.0537  -14.6177 N   0  0  0  0  0  0  0  0  0  0  0  0
   13.6499   15.6097  -15.4688 H   0  0  0  0  0  0  0  0  0  0  0  0
   15.1349   16.8026  -14.8148 C   0  0  0  0  0  0  0  0  0  0  0  0
   15.5180   17.0884  -16.1399 C   0  0  0  0  0  0  0  0  0  0  0  0
   16.6671   17.8319  -16.4252 C   0  0  0  0  0  0  0  0  0  0  0  0
   17.4504   18.3096  -15.3820 C   0  0  0  0  0  0  0  0  0  0  0  0
   17.0873   18.0536  -14.0639 C   0  0  0  0  0  0  0  0  0  0  0  0
   15.9328   17.3097  -13.7861 C   0  0  0  0  0  0  0  0  0  0  0  0
   18.8686   19.2206  -15.7225 Cl  0  0  0  0  0  0  0  0  0  0  0  0
  1 12  1  0  0  0
  2  3  2  0  0  0
  4  5  2  0  0  0
  4 10  1  0  0  0
  5  7  1  0  0  0
  6  1  2  0  0  0
  7 21  1  0  0  0
  8  9  1  0  0  0
 24 25  2  0  0  0
 26 27  2  0  0  0
 26 29  1  0  0  0
 28 23  2  0  0  0
 15 11  1  0  0  0
 15 20  1  0  0  0
 16 20  1  0  0  0
 16 17  1  0  0  0
 17 18  1  0  0  0
 18 19  1  0  0  0
 19 20  1  0  0  0
 21 23  1  0  0  0
 12 11  1  0  0  0
  1  2  1  0  0  0
  3  4  1  0  0  0
  5  6  1  0  0  0
  7  9  2  0  0  0
  8 10  2  0  0  0
 23 24  1  0  0  0
 25 26  1  0  0  0
 27 28  1  0  0  0
 11 13  2  0  0  0
 21 22  1  0  0  0
 12 14  1  0  0  0
M  END
> <minimizedAffinity>
-9.32859

$$$$
CHEMBL4167162


 29 32  0  0  0  0  0  0  0  0999 V2000
   13.1716   15.5726  -14.8635 C   0  0  0  0  0  0  0  0  0  0  0  0
   13.9152   16.0343  -13.7832 C   0  0  0  0  0  0  0  0  0  0  0  0
   13.4798   15.7864  -12.4746 C   0  0  0  0  0  0  0  0  0  0  0  0
   12.3081   15.0897  -12.2019 C   0  0  0  0  0  0  0  0  0  0  0  0
   11.5406   14.6153  -13.2735 C   0  0  0  0  0  0  0  0  0  0  0  0
   12.0017   14.8618  -14.5972 C   0  0  0  0  0  0  0  0  0  0  0  0
   10.3514   13.9263  -12.9245 C   0  0  0  0  0  0  0  0  0  0  0  0
   10.8316   14.2325  -10.7066 C   0  0  0  0  0  0  0  0  0  0  0  0
   10.0122   13.7363  -11.6372 N   0  0  0  0  0  0  0  0  0  0  0  0
   11.9657   14.9035  -10.9264 N   0  0  0  0  0  0  0  0  0  0  0  0
   14.3592   14.9653  -16.9841 C   0  0  0  0  0  0  0  0  0  0  0  0
   13.6450   15.8340  -16.1676 N   0  0  0  0  0  0  0  0  0  0  0  0
   14.6377   13.7960  -16.7240 O   0  0  0  0  0  0  0  0  0  0  0  0
   13.4223   16.7399  -16.5593 H   0  0  0  0  0  0  0  0  0  0  0  0
   14.8448   15.6068  -18.2869 C   0  0  0  0  0  0  0  0  0  0  0  0
   12.7960   14.6486  -19.2412 C   0  0  0  0  0  0  0  0  0  0  0  0
   12.2230   14.5267  -20.6474 C   0  0  0  0  0  0  0  0  0  0  0  0
   13.2092   15.2463  -21.5565 C   0  0  0  0  0  0  0  0  0  0  0  0
   14.2470   15.8425  -20.6234 C   0  0  0  0  0  0  0  0  0  0  0  0
   14.2069   14.9695  -19.4487 N   0  0  0  0  0  0  0  0  0  0  0  0
    9.5160   13.4130  -13.9451 N   0  0  0  0  0  0  0  0  0  0  0  0
    8.5696   13.2324  -13.6457 H   0  0  0  0  0  0  0  0  0  0  0  0
    9.7507   12.9487  -15.2521 C   0  0  0  0  0  0  0  0  0  0  0  0
    9.1592   13.6557  -16.3172 C   0  0  0  0  0  0  0  0  0  0  0  0
    9.3459   13.2664  -17.6470 C   0  0  0  0  0  0  0  0  0  0  0  0
   10.1383   12.1616  -17.9325 C   0  0  0  0  0  0  0  0  0  0  0  0
   10.7454   11.4538  -16.9004 C   0  0  0  0  0  0  0  0  0  0  0  0
   10.5554   11.8518  -15.5703 C   0  0  0  0  0  0  0  0  0  0  0  0
   10.3698   11.6715  -19.5645 Cl  0  0  0  0  0  0  0  0  0  0  0  0
  1 12  1  0  0  0
  2  3  2  0  0  0
  4  5  2  0  0  0
  4 10  1  0  0  0
  5  7  1  0  0  0
  6  1  2  0  0  0
  7 21  1  0  0  0
  8  9  1  0  0  0
 24 25  2  0  0  0
 26 27  2  0  0  0
 26 29  1  0  0  0
 28 23  2  0  0  0
 15 11  1  0  0  0
 15 20  1  0  0  0
 16 20  1  0  0  0
 16 17  1  0  0  0
 17 18  1  0  0  0
 18 19  1  0  0  0
 19 20  1  0  0  0
 21 23  1  0  0  0
 12 11  1  0  0  0
  1  2  1  0  0  0
  3  4  1  0  0  0
  5  6  1  0  0  0
  7  9  2  0  0  0
  8 10  2  0  0  0
 23 24  1  0  0  0
 25 26  1  0  0  0
 27 28  1  0  0  0
 11 13  2  0  0  0
 21 22  1  0  0  0
 12 14  1  0  0  0
M  END
> <minimizedAffinity>
-9.29713

$$$$
CHEMBL4167162


 29 32  0  0  0  0  0  0  0  0999 V2000
   14.5100   16.6023  -15.0373 C   0  0  0  0  0  0  0  0  0  0  0  0
   14.8406   16.6380  -13.6873 C   0  0  0  0  0  0  0  0  0  0  0  0
   13.9722   16.0838  -12.7374 C   0  0  0  0  0  0  0  0  0  0  0  0
   12.7648   15.4926  -13.0915 C   0  0  0  0  0  0  0  0  0  0  0  0
   12.4084   15.4455  -14.4455 C   0  0  0  0  0  0  0  0  0  0  0  0
   13.3062   15.9994  -15.4010 C   0  0  0  0  0  0  0  0  0  0  0  0
   11.1583   14.8421  -14.7348 C   0  0  0  0  0  0  0  0  0  0  0  0
   10.8431   14.4384  -12.5030 C   0  0  0  0  0  0  0  0  0  0  0  0
   10.3886   14.3368  -13.7547 N   0  0  0  0  0  0  0  0  0  0  0  0
   11.9964   14.9948  -12.1218 N   0  0  0  0  0  0  0  0  0  0  0  0
   16.0522   16.5031  -17.0089 C   0  0  0  0  0  0  0  0  0  0  0  0
   15.4128   17.1632  -15.9666 N   0  0  0  0  0  0  0  0  0  0  0  0
   15.8808   15.3289  -17.3321 O   0  0  0  0  0  0  0  0  0  0  0  0
   15.5972   18.1543  -15.8803 H   0  0  0  0  0  0  0  0  0  0  0  0
   17.0776   17.3686  -17.7466 C   0  0  0  0  0  0  0  0  0  0  0  0
   19.4331   17.2427  -18.4262 C   0  0  0  0  0  0  0  0  0  0  0  0
   20.7657   17.2880  -17.6896 C   0  0  0  0  0  0  0  0  0  0  0  0
   20.4182   17.5214  -16.2261 C   0  0  0  0  0  0  0  0  0  0  0  0
   18.9124   17.7084  -16.2006 C   0  0  0  0  0  0  0  0  0  0  0  0
   18.4470   16.9770  -17.3805 N   0  0  0  0  0  0  0  0  0  0  0  0
   10.7198   14.7520  -16.0774 N   0  0  0  0  0  0  0  0  0  0  0  0
   10.8821   15.5890  -16.6169 H   0  0  0  0  0  0  0  0  0  0  0  0
    9.9626   13.8058  -16.7917 C   0  0  0  0  0  0  0  0  0  0  0  0
    8.7130   14.2116  -17.2996 C   0  0  0  0  0  0  0  0  0  0  0  0
    7.8994   13.3369  -18.0262 C   0  0  0  0  0  0  0  0  0  0  0  0
    8.3306   12.0377  -18.2629 C   0  0  0  0  0  0  0  0  0  0  0  0
    9.5664   11.6153  -17.7844 C   0  0  0  0  0  0  0  0  0  0  0  0
   10.3772   12.4987  -17.0592 C   0  0  0  0  0  0  0  0  0  0  0  0
    7.3350   10.9526  -19.1508 Cl  0  0  0  0  0  0  0  0  0  0  0  0
  1 12  1  0  0  0
  2  3  2  0  0  0
  4  5  2  0  0  0
  4 10  1  0  0  0
  5  7  1  0  0  0
  6  1  2  0  0  0
  7 21  1  0  0  0
  8  9  1  0  0  0
 24 25  2  0  0  0
 26 27  2  0  0  0
 26 29  1  0  0  0
 28 23  2  0  0  0
 15 11  1  0  0  0
 15 20  1  0  0  0
 16 20  1  0  0  0
 16 17  1  0  0  0
 17 18  1  0  0  0
 18 19  1  0  0  0
 19 20  1  0  0  0
 21 23  1  0  0  0
 12 11  1  0  0  0
  1  2  1  0  0  0
  3  4  1  0  0  0
  5  6  1  0  0  0
  7  9  2  0  0  0
  8 10  2  0  0  0
 23 24  1  0  0  0
 25 26  1  0  0  0
 27 28  1  0  0  0
 11 13  2  0  0  0
 21 22  1  0  0  0
 12 14  1  0  0  0
M  END
> <minimizedAffinity>
-9.22803

$$$$
CHEMBL4167162


 29 32  0  0  0  0  0  0  0  0999 V2000
   13.3518   14.5713  -19.5087 C   0  0  0  0  0  0  0  0  0  0  0  0
   13.2943   13.6199  -20.5209 C   0  0  0  0  0  0  0  0  0  0  0  0
   12.1945   12.7562  -20.6103 C   0  0  0  0  0  0  0  0  0  0  0  0
   11.1377   12.8045  -19.7083 C   0  0  0  0  0  0  0  0  0  0  0  0
   11.1729   13.7537  -18.6786 C   0  0  0  0  0  0  0  0  0  0  0  0
   12.2891   14.6340  -18.6078 C   0  0  0  0  0  0  0  0  0  0  0  0
   10.0710   13.7384  -17.7862 C   0  0  0  0  0  0  0  0  0  0  0  0
    9.1392   12.0177  -18.9753 C   0  0  0  0  0  0  0  0  0  0  0  0
    9.0579   12.8695  -17.9499 N   0  0  0  0  0  0  0  0  0  0  0  0
   10.1334   11.9411  -19.8644 N   0  0  0  0  0  0  0  0  0  0  0  0
   15.4996   15.3994  -18.5203 C   0  0  0  0  0  0  0  0  0  0  0  0
   14.4712   15.4298  -19.4544 N   0  0  0  0  0  0  0  0  0  0  0  0
   15.6344   14.5694  -17.6227 O   0  0  0  0  0  0  0  0  0  0  0  0
   14.5461   16.1263  -20.1846 H   0  0  0  0  0  0  0  0  0  0  0  0
   16.4900   16.5589  -18.6594 C   0  0  0  0  0  0  0  0  0  0  0  0
   18.6544   16.8286  -17.5329 C   0  0  0  0  0  0  0  0  0  0  0  0
   19.1354   17.5853  -16.3014 C   0  0  0  0  0  0  0  0  0  0  0  0
   17.9203   18.3418  -15.7836 C   0  0  0  0  0  0  0  0  0  0  0  0
   16.8242   18.0747  -16.7987 C   0  0  0  0  0  0  0  0  0  0  0  0
   17.1999   16.7903  -17.3925 N   0  0  0  0  0  0  0  0  0  0  0  0
   10.0252   14.6640  -16.7165 N   0  0  0  0  0  0  0  0  0  0  0  0
    9.5793   15.5379  -16.9517 H   0  0  0  0  0  0  0  0  0  0  0  0
   10.6040   14.6982  -15.4348 C   0  0  0  0  0  0  0  0  0  0  0  0
   11.6491   15.6153  -15.2095 C   0  0  0  0  0  0  0  0  0  0  0  0
   12.2754   15.7195  -13.9639 C   0  0  0  0  0  0  0  0  0  0  0  0
   11.8572   14.9077  -12.9169 C   0  0  0  0  0  0  0  0  0  0  0  0
   10.8180   14.0032  -13.1084 C   0  0  0  0  0  0  0  0  0  0  0  0
   10.1936   13.9065  -14.3592 C   0  0  0  0  0  0  0  0  0  0  0  0
   12.6246   15.0244  -11.3824 Cl  0  0  0  0  0  0  0  0  0  0  0  0
  1 12  1  0  0  0
  2  3  2  0  0  0
  4  5  2  0  0  0
  4 10  1  0  0  0
  5  7  1  0  0  0
  6  1  2  0  0  0
  7 21  1  0  0  0
  8  9  1  0  0  0
 24 25  2  0  0  0
 26 27  2  0  0  0
 26 29  1  0  0  0
 28 23  2  0  0  0
 15 11  1  0  0  0
 15 20  1  0  0  0
 16 20  1  0  0  0
 16 17  1  0  0  0
 17 18  1  0  0  0
 18 19  1  0  0  0
 19 20  1  0  0  0
 21 23  1  0  0  0
 12 11  1  0  0  0
  1  2  1  0  0  0
  3  4  1  0  0  0
  5  6  1  0  0  0
  7  9  2  0  0  0
  8 10  2  0  0  0
 23 24  1  0  0  0
 25 26  1  0  0  0
 27 28  1  0  0  0
 11 13  2  0  0  0
 21 22  1  0  0  0
 12 14  1  0  0  0
M  END
> <minimizedAffinity>
-9.19080

$$$$
CHEMBL4167162


 29 32  0  0  0  0  0  0  0  0999 V2000
   13.8029   15.9204  -14.6946 C   0  0  0  0  0  0  0  0  0  0  0  0
   14.5027   16.1642  -13.5182 C   0  0  0  0  0  0  0  0  0  0  0  0
   13.9364   15.8256  -12.2821 C   0  0  0  0  0  0  0  0  0  0  0  0
   12.6754   15.2499  -12.1762 C   0  0  0  0  0  0  0  0  0  0  0  0
   11.9498   14.9955  -13.3472 C   0  0  0  0  0  0  0  0  0  0  0  0
   12.5426   15.3314  -14.5968 C   0  0  0  0  0  0  0  0  0  0  0  0
   10.6661   14.4210  -13.1662 C   0  0  0  0  0  0  0  0  0  0  0  0
   10.9943   14.4157  -10.9000 C   0  0  0  0  0  0  0  0  0  0  0  0
   10.2033   14.1302  -11.9376 N   0  0  0  0  0  0  0  0  0  0  0  0
   12.2109   14.9646  -10.9591 N   0  0  0  0  0  0  0  0  0  0  0  0
   14.9043   15.3936  -16.8821 C   0  0  0  0  0  0  0  0  0  0  0  0
   14.4080   16.2672  -15.9222 N   0  0  0  0  0  0  0  0  0  0  0  0
   14.8349   14.1662  -16.8453 O   0  0  0  0  0  0  0  0  0  0  0  0
   14.4666   17.2541  -16.1376 H   0  0  0  0  0  0  0  0  0  0  0  0
   15.6253   16.0951  -18.0366 C   0  0  0  0  0  0  0  0  0  0  0  0
   18.0592   16.3699  -17.8730 C   0  0  0  0  0  0  0  0  0  0  0  0
   18.9985   17.5639  -17.7600 C   0  0  0  0  0  0  0  0  0  0  0  0
   18.1072   18.7957  -17.8317 C   0  0  0  0  0  0  0  0  0  0  0  0
   16.7109   18.2608  -18.0914 C   0  0  0  0  0  0  0  0  0  0  0  0
   16.7431   16.9076  -17.5335 N   0  0  0  0  0  0  0  0  0  0  0  0
    9.8647   14.1307  -14.2961 N   0  0  0  0  0  0  0  0  0  0  0  0
    8.8751   14.2412  -14.1338 H   0  0  0  0  0  0  0  0  0  0  0  0
   10.1303   13.5689  -15.5581 C   0  0  0  0  0  0  0  0  0  0  0  0
    9.8681   14.3559  -16.6965 C   0  0  0  0  0  0  0  0  0  0  0  0
   10.1092   13.8776  -17.9880 C   0  0  0  0  0  0  0  0  0  0  0  0
   10.6265   12.5998  -18.1598 C   0  0  0  0  0  0  0  0  0  0  0  0
   10.9074   11.8068  -17.0520 C   0  0  0  0  0  0  0  0  0  0  0  0
   10.6653   12.2942  -15.7608 C   0  0  0  0  0  0  0  0  0  0  0  0
   10.9216   12.0003  -19.7443 Cl  0  0  0  0  0  0  0  0  0  0  0  0
  1 12  1  0  0  0
  2  3  2  0  0  0
  4  5  2  0  0  0
  4 10  1  0  0  0
  5  7  1  0  0  0
  6  1  2  0  0  0
  7 21  1  0  0  0
  8  9  1  0  0  0
 24 25  2  0  0  0
 26 27  2  0  0  0
 26 29  1  0  0  0
 28 23  2  0  0  0
 15 11  1  0  0  0
 15 20  1  0  0  0
 16 20  1  0  0  0
 16 17  1  0  0  0
 17 18  1  0  0  0
 18 19  1  0  0  0
 19 20  1  0  0  0
 21 23  1  0  0  0
 12 11  1  0  0  0
  1  2  1  0  0  0
  3  4  1  0  0  0
  5  6  1  0  0  0
  7  9  2  0  0  0
  8 10  2  0  0  0
 23 24  1  0  0  0
 25 26  1  0  0  0
 27 28  1  0  0  0
 11 13  2  0  0  0
 21 22  1  0  0  0
 12 14  1  0  0  0
M  END
> <minimizedAffinity>
-9.13734

$$$$
CHEMBL4167162


 29 32  0  0  0  0  0  0  0  0999 V2000
   12.9455   14.6791  -19.2342 C   0  0  0  0  0  0  0  0  0  0  0  0
   13.1811   15.0754  -20.5459 C   0  0  0  0  0  0  0  0  0  0  0  0
   12.5668   14.3948  -21.6055 C   0  0  0  0  0  0  0  0  0  0  0  0
   11.7185   13.3127  -21.4000 C   0  0  0  0  0  0  0  0  0  0  0  0
   11.4663   12.8933  -20.0874 C   0  0  0  0  0  0  0  0  0  0  0  0
   12.0856   13.6024  -19.0199 C   0  0  0  0  0  0  0  0  0  0  0  0
   10.6043   11.7757  -19.9505 C   0  0  0  0  0  0  0  0  0  0  0  0
   10.3742   11.6818  -22.2268 C   0  0  0  0  0  0  0  0  0  0  0  0
   10.0600   11.1836  -21.0282 N   0  0  0  0  0  0  0  0  0  0  0  0
   11.1807   12.7196  -22.4666 N   0  0  0  0  0  0  0  0  0  0  0  0
   14.7966   15.0971  -17.5987 C   0  0  0  0  0  0  0  0  0  0  0  0
   13.5752   15.3932  -18.1917 N   0  0  0  0  0  0  0  0  0  0  0  0
   15.5625   14.1959  -17.9360 O   0  0  0  0  0  0  0  0  0  0  0  0
   13.0997   16.2205  -17.8553 H   0  0  0  0  0  0  0  0  0  0  0  0
   15.1289   15.9888  -16.3991 C   0  0  0  0  0  0  0  0  0  0  0  0
   14.7754   16.2680  -13.9859 C   0  0  0  0  0  0  0  0  0  0  0  0
   13.6162   16.0020  -13.0340 C   0  0  0  0  0  0  0  0  0  0  0  0
   12.4715   15.5099  -13.9083 C   0  0  0  0  0  0  0  0  0  0  0  0
   12.9850   15.6175  -15.3324 C   0  0  0  0  0  0  0  0  0  0  0  0
   14.4385   15.5125  -15.1911 N   0  0  0  0  0  0  0  0  0  0  0  0
   10.2953   11.2855  -18.6594 N   0  0  0  0  0  0  0  0  0  0  0  0
   10.0998   10.2960  -18.6345 H   0  0  0  0  0  0  0  0  0  0  0  0
   10.0457   11.9012  -17.4194 C   0  0  0  0  0  0  0  0  0  0  0  0
   10.9806   11.6998  -16.3852 C   0  0  0  0  0  0  0  0  0  0  0  0
   10.8130   12.2799  -15.1242 C   0  0  0  0  0  0  0  0  0  0  0  0
    9.7046   13.0811  -14.8806 C   0  0  0  0  0  0  0  0  0  0  0  0
    8.7732   13.3076  -15.8886 C   0  0  0  0  0  0  0  0  0  0  0  0
    8.9495   12.7246  -17.1506 C   0  0  0  0  0  0  0  0  0  0  0  0
    9.4866   13.7948  -13.3313 Cl  0  0  0  0  0  0  0  0  0  0  0  0
  1 12  1  0  0  0
  2  3  2  0  0  0
  4  5  2  0  0  0
  4 10  1  0  0  0
  5  7  1  0  0  0
  6  1  2  0  0  0
  7 21  1  0  0  0
  8  9  1  0  0  0
 24 25  2  0  0  0
 26 27  2  0  0  0
 26 29  1  0  0  0
 28 23  2  0  0  0
 15 11  1  0  0  0
 15 20  1  0  0  0
 16 20  1  0  0  0
 16 17  1  0  0  0
 17 18  1  0  0  0
 18 19  1  0  0  0
 19 20  1  0  0  0
 21 23  1  0  0  0
 12 11  1  0  0  0
  1  2  1  0  0  0
  3  4  1  0  0  0
  5  6  1  0  0  0
  7  9  2  0  0  0
  8 10  2  0  0  0
 23 24  1  0  0  0
 25 26  1  0  0  0
 27 28  1  0  0  0
 11 13  2  0  0  0
 21 22  1  0  0  0
 12 14  1  0  0  0
M  END
> <minimizedAffinity>
-8.87641

$$$$
CHEMBL4167162


 29 32  0  0  0  0  0  0  0  0999 V2000
    9.6558   13.3691  -17.0541 C   0  0  0  0  0  0  0  0  0  0  0  0
    8.3425   12.9247  -17.1578 C   0  0  0  0  0  0  0  0  0  0  0  0
    7.9334   12.2018  -18.2863 C   0  0  0  0  0  0  0  0  0  0  0  0
    8.7994   11.9079  -19.3334 C   0  0  0  0  0  0  0  0  0  0  0  0
   10.1277   12.3459  -19.2531 C   0  0  0  0  0  0  0  0  0  0  0  0
   10.5334   13.0669  -18.0950 C   0  0  0  0  0  0  0  0  0  0  0  0
   10.9522   12.0248  -20.3611 C   0  0  0  0  0  0  0  0  0  0  0  0
    9.1873   10.9604  -21.3588 C   0  0  0  0  0  0  0  0  0  0  0  0
   10.4710   11.3260  -21.4044 N   0  0  0  0  0  0  0  0  0  0  0  0
    8.3246   11.2194  -20.3721 N   0  0  0  0  0  0  0  0  0  0  0  0
   10.7481   13.5992  -14.8114 C   0  0  0  0  0  0  0  0  0  0  0  0
   10.0344   14.0874  -15.8992 N   0  0  0  0  0  0  0  0  0  0  0  0
   11.2260   12.4705  -14.7101 O   0  0  0  0  0  0  0  0  0  0  0  0
    9.7801   15.0663  -15.8688 H   0  0  0  0  0  0  0  0  0  0  0  0
   10.8721   14.6000  -13.6592 C   0  0  0  0  0  0  0  0  0  0  0  0
   12.9600   15.7141  -14.3114 C   0  0  0  0  0  0  0  0  0  0  0  0
   14.1596   16.2712  -13.5557 C   0  0  0  0  0  0  0  0  0  0  0  0
   13.8396   16.0813  -12.0798 C   0  0  0  0  0  0  0  0  0  0  0  0
   12.4280   15.5249  -12.0481 C   0  0  0  0  0  0  0  0  0  0  0  0
   12.2853   14.8536  -13.3414 N   0  0  0  0  0  0  0  0  0  0  0  0
   12.3087   12.4287  -20.3631 N   0  0  0  0  0  0  0  0  0  0  0  0
   12.9227   11.7992  -19.8685 H   0  0  0  0  0  0  0  0  0  0  0  0
   12.9742   13.5993  -20.7701 C   0  0  0  0  0  0  0  0  0  0  0  0
   13.2152   13.7738  -22.1469 C   0  0  0  0  0  0  0  0  0  0  0  0
   13.8644   14.9105  -22.6378 C   0  0  0  0  0  0  0  0  0  0  0  0
   14.2778   15.8988  -21.7533 C   0  0  0  0  0  0  0  0  0  0  0  0
   14.0400   15.7580  -20.3901 C   0  0  0  0  0  0  0  0  0  0  0  0
   13.3864   14.6169  -19.9061 C   0  0  0  0  0  0  0  0  0  0  0  0
   15.0820   17.2983  -22.3465 Cl  0  0  0  0  0  0  0  0  0  0  0  0
  1 12  1  0  0  0
  2  3  2  0  0  0
  4  5  2  0  0  0
  4 10  1  0  0  0
  5  7  1  0  0  0
  6  1  2  0  0  0
  7 21  1  0  0  0
  8  9  1  0  0  0
 24 25  2  0  0  0
 26 27  2  0  0  0
 26 29  1  0  0  0
 28 23  2  0  0  0
 15 11  1  0  0  0
 15 20  1  0  0  0
 16 20  1  0  0  0
 16 17  1  0  0  0
 17 18  1  0  0  0
 18 19  1  0  0  0
 19 20  1  0  0  0
 21 23  1  0  0  0
 12 11  1  0  0  0
  1  2  1  0  0  0
  3  4  1  0  0  0
  5  6  1  0  0  0
  7  9  2  0  0  0
  8 10  2  0  0  0
 23 24  1  0  0  0
 25 26  1  0  0  0
 27 28  1  0  0  0
 11 13  2  0  0  0
 21 22  1  0  0  0
 12 14  1  0  0  0
M  END
> <minimizedAffinity>
-8.68834

$$$$
CHEMBL4167162


 29 32  0  0  0  0  0  0  0  0999 V2000
   15.3356   16.7516  -15.7899 C   0  0  0  0  0  0  0  0  0  0  0  0
   15.6188   17.2272  -14.5145 C   0  0  0  0  0  0  0  0  0  0  0  0
   14.8276   16.8334  -13.4271 C   0  0  0  0  0  0  0  0  0  0  0  0
   13.7439   15.9745  -13.5704 C   0  0  0  0  0  0  0  0  0  0  0  0
   13.4373   15.4826  -14.8457 C   0  0  0  0  0  0  0  0  0  0  0  0
   14.2576   15.8794  -15.9391 C   0  0  0  0  0  0  0  0  0  0  0  0
   12.3117   14.6237  -14.9226 C   0  0  0  0  0  0  0  0  0  0  0  0
   12.0062   14.8311  -12.6628 C   0  0  0  0  0  0  0  0  0  0  0  0
   11.6090   14.3010  -13.8225 N   0  0  0  0  0  0  0  0  0  0  0  0
   13.0415   15.6561  -12.4824 N   0  0  0  0  0  0  0  0  0  0  0  0
   16.7233   16.3514  -17.8368 C   0  0  0  0  0  0  0  0  0  0  0  0
   16.1590   17.1632  -16.8603 N   0  0  0  0  0  0  0  0  0  0  0  0
   16.5393   15.1421  -17.9643 O   0  0  0  0  0  0  0  0  0  0  0  0
   16.3396   18.1556  -16.9396 H   0  0  0  0  0  0  0  0  0  0  0  0
   17.6806   17.0931  -18.7739 C   0  0  0  0  0  0  0  0  0  0  0  0
   17.8069   18.8594  -20.4740 C   0  0  0  0  0  0  0  0  0  0  0  0
   16.8956   19.3316  -21.5997 C   0  0  0  0  0  0  0  0  0  0  0  0
   15.7083   18.3792  -21.5937 C   0  0  0  0  0  0  0  0  0  0  0  0
   16.0394   17.3386  -20.5397 C   0  0  0  0  0  0  0  0  0  0  0  0
   16.9443   18.0387  -19.6261 N   0  0  0  0  0  0  0  0  0  0  0  0
   11.9309   14.0809  -16.1730 N   0  0  0  0  0  0  0  0  0  0  0  0
   12.6407   14.1601  -16.8856 H   0  0  0  0  0  0  0  0  0  0  0  0
   10.7184   13.5915  -16.6920 C   0  0  0  0  0  0  0  0  0  0  0  0
    9.8148   14.5222  -17.2409 C   0  0  0  0  0  0  0  0  0  0  0  0
    8.5904   14.1208  -17.7837 C   0  0  0  0  0  0  0  0  0  0  0  0
    8.2538   12.7730  -17.7920 C   0  0  0  0  0  0  0  0  0  0  0  0
    9.1340   11.8315  -17.2689 C   0  0  0  0  0  0  0  0  0  0  0  0
   10.3604   12.2415  -16.7289 C   0  0  0  0  0  0  0  0  0  0  0  0
    6.7480   12.2696  -18.4525 Cl  0  0  0  0  0  0  0  0  0  0  0  0
  1 12  1  0  0  0
  2  3  2  0  0  0
  4  5  2  0  0  0
  4 10  1  0  0  0
  5  7  1  0  0  0
  6  1  2  0  0  0
  7 21  1  0  0  0
  8  9  1  0  0  0
 24 25  2  0  0  0
 26 27  2  0  0  0
 26 29  1  0  0  0
 28 23  2  0  0  0
 15 11  1  0  0  0
 15 20  1  0  0  0
 16 20  1  0  0  0
 16 17  1  0  0  0
 17 18  1  0  0  0
 18 19  1  0  0  0
 19 20  1  0  0  0
 21 23  1  0  0  0
 12 11  1  0  0  0
  1  2  1  0  0  0
  3  4  1  0  0  0
  5  6  1  0  0  0
  7  9  2  0  0  0
  8 10  2  0  0  0
 23 24  1  0  0  0
 25 26  1  0  0  0
 27 28  1  0  0  0
 11 13  2  0  0  0
 21 22  1  0  0  0
 12 14  1  0  0  0
M  END
> <minimizedAffinity>
-8.41831

$$$$
CHEMBL4167162


 29 32  0  0  0  0  0  0  0  0999 V2000
   14.2121   14.3199  -17.8590 C   0  0  0  0  0  0  0  0  0  0  0  0
   15.2516   15.2429  -17.8338 C   0  0  0  0  0  0  0  0  0  0  0  0
   15.4768   16.0148  -16.6862 C   0  0  0  0  0  0  0  0  0  0  0  0
   14.6859   15.9013  -15.5485 C   0  0  0  0  0  0  0  0  0  0  0  0
   13.6312   14.9792  -15.5496 C   0  0  0  0  0  0  0  0  0  0  0  0
   13.4224   14.1917  -16.7167 C   0  0  0  0  0  0  0  0  0  0  0  0
   12.8562   14.9254  -14.3634 C   0  0  0  0  0  0  0  0  0  0  0  0
   14.1824   16.5423  -13.4304 C   0  0  0  0  0  0  0  0  0  0  0  0
   13.1467   15.7078  -13.3090 N   0  0  0  0  0  0  0  0  0  0  0  0
   14.9677   16.6792  -14.5026 N   0  0  0  0  0  0  0  0  0  0  0  0
   13.2593   13.9044  -20.1383 C   0  0  0  0  0  0  0  0  0  0  0  0
   14.0199   13.5540  -19.0293 N   0  0  0  0  0  0  0  0  0  0  0  0
   12.6808   14.9765  -20.3067 O   0  0  0  0  0  0  0  0  0  0  0  0
   14.5043   12.6670  -19.0770 H   0  0  0  0  0  0  0  0  0  0  0  0
   13.1433   12.7886  -21.1805 C   0  0  0  0  0  0  0  0  0  0  0  0
   11.6538   12.1411  -23.0213 C   0  0  0  0  0  0  0  0  0  0  0  0
   10.2306   11.6055  -23.1114 C   0  0  0  0  0  0  0  0  0  0  0  0
    9.7673   11.4265  -21.6726 C   0  0  0  0  0  0  0  0  0  0  0  0
   10.9778   11.7623  -20.8211 C   0  0  0  0  0  0  0  0  0  0  0  0
   11.7591   12.6704  -21.6628 N   0  0  0  0  0  0  0  0  0  0  0  0
   11.7708   14.0212  -14.2782 N   0  0  0  0  0  0  0  0  0  0  0  0
   11.6381   13.6282  -13.3585 H   0  0  0  0  0  0  0  0  0  0  0  0
   10.9251   13.4245  -15.2309 C   0  0  0  0  0  0  0  0  0  0  0  0
   10.1086   14.2704  -16.0068 C   0  0  0  0  0  0  0  0  0  0  0  0
    9.2437   13.7612  -16.9802 C   0  0  0  0  0  0  0  0  0  0  0  0
    9.1886   12.3902  -17.1979 C   0  0  0  0  0  0  0  0  0  0  0  0
    9.9945   11.5336  -16.4552 C   0  0  0  0  0  0  0  0  0  0  0  0
   10.8605   12.0519  -15.4831 C   0  0  0  0  0  0  0  0  0  0  0  0
    8.1243   11.7535  -18.3891 Cl  0  0  0  0  0  0  0  0  0  0  0  0
  1 12  1  0  0  0
  2  3  2  0  0  0
  4  5  2  0  0  0
  4 10  1  0  0  0
  5  7  1  0  0  0
  6  1  2  0  0  0
  7 21  1  0  0  0
  8  9  1  0  0  0
 24 25  2  0  0  0
 26 27  2  0  0  0
 26 29  1  0  0  0
 28 23  2  0  0  0
 15 11  1  0  0  0
 15 20  1  0  0  0
 16 20  1  0  0  0
 16 17  1  0  0  0
 17 18  1  0  0  0
 18 19  1  0  0  0
 19 20  1  0  0  0
 21 23  1  0  0  0
 12 11  1  0  0  0
  1  2  1  0  0  0
  3  4  1  0  0  0
  5  6  1  0  0  0
  7  9  2  0  0  0
  8 10  2  0  0  0
 23 24  1  0  0  0
 25 26  1  0  0  0
 27 28  1  0  0  0
 11 13  2  0  0  0
 21 22  1  0  0  0
 12 14  1  0  0  0
M  END
> <minimizedAffinity>
-8.39884

$$$$
CHEMBL4649816


 25 28  0  0  0  0  0  0  0  0999 V2000
   10.4203   11.6851  -16.0045 C   0  0  0  0  0  0  0  0  0  0  0  0
    9.3030   12.7252  -16.0947 C   0  0  0  0  0  0  0  0  0  0  0  0
    9.9747   14.0969  -15.9708 C   0  0  0  0  0  0  0  0  0  0  0  0
   11.6896   12.4856  -15.8759 C   0  0  0  0  0  0  0  0  0  0  0  0
   11.3831   13.8292  -15.8428 N   0  0  0  0  0  0  0  0  0  0  0  0
   12.8071   11.9990  -15.7784 O   0  0  0  0  0  0  0  0  0  0  0  0
    8.4518   12.5780  -17.2784 N   0  0  0  0  0  0  0  0  0  0  0  0
    7.4696   12.7782  -17.1780 H   0  0  0  0  0  0  0  0  0  0  0  0
    8.9443   12.2138  -18.5102 C   0  0  0  0  0  0  0  0  0  0  0  0
   10.5243   12.4019  -20.2117 C   0  0  0  0  0  0  0  0  0  0  0  0
    8.8531   10.9774  -20.5733 C   0  0  0  0  0  0  0  0  0  0  0  0
    8.3238   11.2894  -19.3326 C   0  0  0  0  0  0  0  0  0  0  0  0
    7.0904    9.7968  -20.3982 C   0  0  0  0  0  0  0  0  0  0  0  0
   10.0754   12.7620  -18.9915 N   0  0  0  0  0  0  0  0  0  0  0  0
    9.9780   11.5257  -21.0611 N   0  0  0  0  0  0  0  0  0  0  0  0
    7.1959   10.5209  -19.2429 N   0  0  0  0  0  0  0  0  0  0  0  0
    8.0792   10.0526  -21.2240 N   0  0  0  0  0  0  0  0  0  0  0  0
    6.5534   10.4913  -18.4657 H   0  0  0  0  0  0  0  0  0  0  0  0
   12.3779   14.8829  -15.8533 C   0  0  0  0  0  0  0  0  0  0  0  0
   12.8089   15.2641  -14.4570 C   0  0  0  0  0  0  0  0  0  0  0  0
   14.0073   15.9653  -14.2560 C   0  0  0  0  0  0  0  0  0  0  0  0
   14.3947   16.3574  -12.9737 C   0  0  0  0  0  0  0  0  0  0  0  0
   13.5806   16.0674  -11.8806 C   0  0  0  0  0  0  0  0  0  0  0  0
   12.3826   15.3801  -12.0680 C   0  0  0  0  0  0  0  0  0  0  0  0
   11.9998   14.9768  -13.3486 C   0  0  0  0  0  0  0  0  0  0  0  0
  1  2  1  0  0  0
  1  4  1  0  0  0
  2  3  1  0  0  0
  2  7  1  0  0  0
  3  5  1  0  0  0
 19  5  1  0  0  0
 19 20  1  0  0  0
 21 22  2  0  0  0
 23 24  2  0  0  0
 25 20  2  0  0  0
 10 14  2  0  0  0
 11 15  2  0  0  0
 11 17  1  0  0  0
 12 16  1  0  0  0
 12  9  2  0  0  0
  5  4  1  0  0  0
  7  9  1  0  0  0
 16 13  1  0  0  0
  4  6  2  0  0  0
 20 21  1  0  0  0
 22 23  1  0  0  0
 24 25  1  0  0  0
  9 14  1  0  0  0
 10 15  1  0  0  0
 11 12  1  0  0  0
 13 17  2  0  0  0
  7  8  1  0  0  0
 16 18  1  0  0  0
M  END
> <minimizedAffinity>
-9.03033

$$$$
CHEMBL4649816


 25 28  0  0  0  0  0  0  0  0999 V2000
    9.6893   11.8262  -16.1039 C   0  0  0  0  0  0  0  0  0  0  0  0
    8.9079   13.1331  -16.2434 C   0  0  0  0  0  0  0  0  0  0  0  0
    9.9387   14.2651  -16.1810 C   0  0  0  0  0  0  0  0  0  0  0  0
   11.1336   12.2429  -16.0094 C   0  0  0  0  0  0  0  0  0  0  0  0
   11.2168   13.6186  -16.0382 N   0  0  0  0  0  0  0  0  0  0  0  0
   12.0707   11.4669  -15.8878 O   0  0  0  0  0  0  0  0  0  0  0  0
    8.0366   13.1785  -17.4209 N   0  0  0  0  0  0  0  0  0  0  0  0
    7.3466   13.9112  -17.4660 H   0  0  0  0  0  0  0  0  0  0  0  0
    8.1478   12.2902  -18.4654 C   0  0  0  0  0  0  0  0  0  0  0  0
    7.3568   10.4736  -19.6905 C   0  0  0  0  0  0  0  0  0  0  0  0
    9.2803   11.3596  -20.3745 C   0  0  0  0  0  0  0  0  0  0  0  0
    9.2091   12.2925  -19.3540 C   0  0  0  0  0  0  0  0  0  0  0  0
   11.0281   12.5572  -20.5810 C   0  0  0  0  0  0  0  0  0  0  0  0
    7.2118   11.3451  -18.6710 N   0  0  0  0  0  0  0  0  0  0  0  0
    8.3525   10.4106  -20.5806 N   0  0  0  0  0  0  0  0  0  0  0  0
   10.3387   13.0483  -19.5069 N   0  0  0  0  0  0  0  0  0  0  0  0
   10.4124   11.5335  -21.1267 N   0  0  0  0  0  0  0  0  0  0  0  0
   10.6178   13.8288  -18.9318 H   0  0  0  0  0  0  0  0  0  0  0  0
   12.4671   14.3490  -16.0950 C   0  0  0  0  0  0  0  0  0  0  0  0
   12.8134   14.9762  -14.7655 C   0  0  0  0  0  0  0  0  0  0  0  0
   12.0107   14.7329  -13.6409 C   0  0  0  0  0  0  0  0  0  0  0  0
   12.3446   15.2750  -12.3989 C   0  0  0  0  0  0  0  0  0  0  0  0
   13.4929   16.0527  -12.2639 C   0  0  0  0  0  0  0  0  0  0  0  0
   14.3043   16.2937  -13.3712 C   0  0  0  0  0  0  0  0  0  0  0  0
   13.9651   15.7619  -14.6168 C   0  0  0  0  0  0  0  0  0  0  0  0
  1  2  1  0  0  0
  1  4  1  0  0  0
  2  3  1  0  0  0
  2  7  1  0  0  0
  3  5  1  0  0  0
 19  5  1  0  0  0
 19 20  1  0  0  0
 21 22  2  0  0  0
 23 24  2  0  0  0
 25 20  2  0  0  0
 10 14  2  0  0  0
 11 15  2  0  0  0
 11 17  1  0  0  0
 12 16  1  0  0  0
 12  9  2  0  0  0
  5  4  1  0  0  0
  7  9  1  0  0  0
 16 13  1  0  0  0
  4  6  2  0  0  0
 20 21  1  0  0  0
 22 23  1  0  0  0
 24 25  1  0  0  0
  9 14  1  0  0  0
 10 15  1  0  0  0
 11 12  1  0  0  0
 13 17  2  0  0  0
  7  8  1  0  0  0
 16 18  1  0  0  0
M  END
> <minimizedAffinity>
-8.65994

$$$$
CHEMBL4649816


 25 28  0  0  0  0  0  0  0  0999 V2000
   10.3080   11.5885  -17.3065 C   0  0  0  0  0  0  0  0  0  0  0  0
    9.2802   12.5685  -17.8731 C   0  0  0  0  0  0  0  0  0  0  0  0
    8.6894   13.3200  -16.6754 C   0  0  0  0  0  0  0  0  0  0  0  0
   10.3056   11.8356  -15.8207 C   0  0  0  0  0  0  0  0  0  0  0  0
    9.3688   12.8004  -15.5177 N   0  0  0  0  0  0  0  0  0  0  0  0
   11.0069   11.2354  -15.0187 O   0  0  0  0  0  0  0  0  0  0  0  0
    9.8105   13.4389  -18.9260 N   0  0  0  0  0  0  0  0  0  0  0  0
    9.2390   14.2117  -19.2282 H   0  0  0  0  0  0  0  0  0  0  0  0
   11.0551   13.2605  -19.4843 C   0  0  0  0  0  0  0  0  0  0  0  0
   12.4353   12.4301  -21.1672 C   0  0  0  0  0  0  0  0  0  0  0  0
   13.4513   13.4870  -19.4929 C   0  0  0  0  0  0  0  0  0  0  0  0
   12.2229   13.7146  -18.8962 C   0  0  0  0  0  0  0  0  0  0  0  0
   13.8827   14.5502  -17.6998 C   0  0  0  0  0  0  0  0  0  0  0  0
   11.2010   12.6090  -20.6530 N   0  0  0  0  0  0  0  0  0  0  0  0
   13.6033   12.8324  -20.6557 N   0  0  0  0  0  0  0  0  0  0  0  0
   12.5246   14.3971  -17.7499 N   0  0  0  0  0  0  0  0  0  0  0  0
   14.4715   14.0084  -18.7413 N   0  0  0  0  0  0  0  0  0  0  0  0
   11.8664   14.7291  -17.0614 H   0  0  0  0  0  0  0  0  0  0  0  0
    9.1957   13.3683  -14.1958 C   0  0  0  0  0  0  0  0  0  0  0  0
   10.4093   14.1527  -13.7569 C   0  0  0  0  0  0  0  0  0  0  0  0
   11.1666   14.8652  -14.6987 C   0  0  0  0  0  0  0  0  0  0  0  0
   12.2660   15.6258  -14.2979 C   0  0  0  0  0  0  0  0  0  0  0  0
   12.6108   15.6955  -12.9495 C   0  0  0  0  0  0  0  0  0  0  0  0
   11.8607   15.0003  -12.0026 C   0  0  0  0  0  0  0  0  0  0  0  0
   10.7678   14.2296  -12.4037 C   0  0  0  0  0  0  0  0  0  0  0  0
  1  2  1  0  0  0
  1  4  1  0  0  0
  2  3  1  0  0  0
  2  7  1  0  0  0
  3  5  1  0  0  0
 19  5  1  0  0  0
 19 20  1  0  0  0
 21 22  2  0  0  0
 23 24  2  0  0  0
 25 20  2  0  0  0
 10 14  2  0  0  0
 11 15  2  0  0  0
 11 17  1  0  0  0
 12 16  1  0  0  0
 12  9  2  0  0  0
  5  4  1  0  0  0
  7  9  1  0  0  0
 16 13  1  0  0  0
  4  6  2  0  0  0
 20 21  1  0  0  0
 22 23  1  0  0  0
 24 25  1  0  0  0
  9 14  1  0  0  0
 10 15  1  0  0  0
 11 12  1  0  0  0
 13 17  2  0  0  0
  7  8  1  0  0  0
 16 18  1  0  0  0
M  END
> <minimizedAffinity>
-8.65306

$$$$
CHEMBL4649816


 25 28  0  0  0  0  0  0  0  0999 V2000
   13.3219   12.9641  -18.0983 C   0  0  0  0  0  0  0  0  0  0  0  0
   13.3512   12.2914  -16.7254 C   0  0  0  0  0  0  0  0  0  0  0  0
   13.5838   13.4058  -15.6998 C   0  0  0  0  0  0  0  0  0  0  0  0
   13.4942   14.4337  -17.8168 C   0  0  0  0  0  0  0  0  0  0  0  0
   13.6557   14.6252  -16.4613 N   0  0  0  0  0  0  0  0  0  0  0  0
   13.5222   15.3036  -18.6756 O   0  0  0  0  0  0  0  0  0  0  0  0
   12.1783   11.4572  -16.4503 N   0  0  0  0  0  0  0  0  0  0  0  0
   12.3300   10.4761  -16.2788 H   0  0  0  0  0  0  0  0  0  0  0  0
   10.9011   11.9643  -16.3861 C   0  0  0  0  0  0  0  0  0  0  0  0
    9.1590   12.9592  -15.2020 C   0  0  0  0  0  0  0  0  0  0  0  0
    8.7462   12.4677  -17.3329 C   0  0  0  0  0  0  0  0  0  0  0  0
   10.0293   11.9636  -17.4612 C   0  0  0  0  0  0  0  0  0  0  0  0
    8.8921   11.8011  -19.3493 C   0  0  0  0  0  0  0  0  0  0  0  0
   10.4225   12.4880  -15.2424 N   0  0  0  0  0  0  0  0  0  0  0  0
    8.2614   12.9858  -16.1926 N   0  0  0  0  0  0  0  0  0  0  0  0
   10.0993   11.5431  -18.7608 N   0  0  0  0  0  0  0  0  0  0  0  0
    8.0515   12.3601  -18.5091 N   0  0  0  0  0  0  0  0  0  0  0  0
   10.8966   11.1173  -19.2089 H   0  0  0  0  0  0  0  0  0  0  0  0
   13.7184   15.9299  -15.8338 C   0  0  0  0  0  0  0  0  0  0  0  0
   13.4008   15.8611  -14.3590 C   0  0  0  0  0  0  0  0  0  0  0  0
   14.3866   16.1719  -13.4104 C   0  0  0  0  0  0  0  0  0  0  0  0
   14.0920   16.1505  -12.0463 C   0  0  0  0  0  0  0  0  0  0  0  0
   12.8049   15.8341  -11.6162 C   0  0  0  0  0  0  0  0  0  0  0  0
   11.8138   15.5331  -12.5489 C   0  0  0  0  0  0  0  0  0  0  0  0
   12.1103   15.5426  -13.9131 C   0  0  0  0  0  0  0  0  0  0  0  0
  1  2  1  0  0  0
  1  4  1  0  0  0
  2  3  1  0  0  0
  2  7  1  0  0  0
  3  5  1  0  0  0
 19  5  1  0  0  0
 19 20  1  0  0  0
 21 22  2  0  0  0
 23 24  2  0  0  0
 25 20  2  0  0  0
 10 14  2  0  0  0
 11 15  2  0  0  0
 11 17  1  0  0  0
 12 16  1  0  0  0
 12  9  2  0  0  0
  5  4  1  0  0  0
  7  9  1  0  0  0
 16 13  1  0  0  0
  4  6  2  0  0  0
 20 21  1  0  0  0
 22 23  1  0  0  0
 24 25  1  0  0  0
  9 14  1  0  0  0
 10 15  1  0  0  0
 11 12  1  0  0  0
 13 17  2  0  0  0
  7  8  1  0  0  0
 16 18  1  0  0  0
M  END
> <minimizedAffinity>
-8.51519

$$$$
CHEMBL4649816


 25 28  0  0  0  0  0  0  0  0999 V2000
   12.0444   14.4727  -18.7086 C   0  0  0  0  0  0  0  0  0  0  0  0
   13.2891   13.6484  -18.3778 C   0  0  0  0  0  0  0  0  0  0  0  0
   13.0125   12.9625  -17.0357 C   0  0  0  0  0  0  0  0  0  0  0  0
   11.0857   14.2031  -17.5786 C   0  0  0  0  0  0  0  0  0  0  0  0
   11.6833   13.3673  -16.6597 N   0  0  0  0  0  0  0  0  0  0  0  0
    9.9680   14.6907  -17.4889 O   0  0  0  0  0  0  0  0  0  0  0  0
   13.6939   12.7328  -19.4479 N   0  0  0  0  0  0  0  0  0  0  0  0
   14.4133   12.0584  -19.2414 H   0  0  0  0  0  0  0  0  0  0  0  0
   13.1126   12.7397  -20.6947 C   0  0  0  0  0  0  0  0  0  0  0  0
   13.1218   13.3387  -22.9459 C   0  0  0  0  0  0  0  0  0  0  0  0
   11.3333   12.2237  -22.2313 C   0  0  0  0  0  0  0  0  0  0  0  0
   11.8807   12.1673  -20.9609 C   0  0  0  0  0  0  0  0  0  0  0  0
    9.9065   11.1775  -21.0474 C   0  0  0  0  0  0  0  0  0  0  0  0
   13.7244   13.3285  -21.7389 N   0  0  0  0  0  0  0  0  0  0  0  0
   11.9365   12.8152  -23.2754 N   0  0  0  0  0  0  0  0  0  0  0  0
   10.9493   11.4926  -20.2206 N   0  0  0  0  0  0  0  0  0  0  0  0
   10.1097   11.6081  -22.2714 N   0  0  0  0  0  0  0  0  0  0  0  0
   11.0153   11.2666  -19.2397 H   0  0  0  0  0  0  0  0  0  0  0  0
   10.9952   12.8054  -15.5148 C   0  0  0  0  0  0  0  0  0  0  0  0
   11.1361   13.6773  -14.2898 C   0  0  0  0  0  0  0  0  0  0  0  0
   10.2517   13.5259  -13.2114 C   0  0  0  0  0  0  0  0  0  0  0  0
   10.3980   14.2987  -12.0584 C   0  0  0  0  0  0  0  0  0  0  0  0
   11.4396   15.2196  -11.9643 C   0  0  0  0  0  0  0  0  0  0  0  0
   12.3311   15.3726  -13.0248 C   0  0  0  0  0  0  0  0  0  0  0  0
   12.1787   14.6087  -14.1834 C   0  0  0  0  0  0  0  0  0  0  0  0
  1  2  1  0  0  0
  1  4  1  0  0  0
  2  3  1  0  0  0
  2  7  1  0  0  0
  3  5  1  0  0  0
 19  5  1  0  0  0
 19 20  1  0  0  0
 21 22  2  0  0  0
 23 24  2  0  0  0
 25 20  2  0  0  0
 10 14  2  0  0  0
 11 15  2  0  0  0
 11 17  1  0  0  0
 12 16  1  0  0  0
 12  9  2  0  0  0
  5  4  1  0  0  0
  7  9  1  0  0  0
 16 13  1  0  0  0
  4  6  2  0  0  0
 20 21  1  0  0  0
 22 23  1  0  0  0
 24 25  1  0  0  0
  9 14  1  0  0  0
 10 15  1  0  0  0
 11 12  1  0  0  0
 13 17  2  0  0  0
  7  8  1  0  0  0
 16 18  1  0  0  0
M  END
> <minimizedAffinity>
-8.48436

$$$$
CHEMBL4649816


 25 28  0  0  0  0  0  0  0  0999 V2000
   10.3088   11.6410  -17.0673 C   0  0  0  0  0  0  0  0  0  0  0  0
    9.4246   12.8590  -17.3373 C   0  0  0  0  0  0  0  0  0  0  0  0
    9.3764   13.6595  -16.0315 C   0  0  0  0  0  0  0  0  0  0  0  0
   10.7701   11.8014  -15.6425 C   0  0  0  0  0  0  0  0  0  0  0  0
   10.2046   12.9366  -15.1024 N   0  0  0  0  0  0  0  0  0  0  0  0
   11.5027   11.0145  -15.0601 O   0  0  0  0  0  0  0  0  0  0  0  0
    9.8359   13.6411  -18.5063 N   0  0  0  0  0  0  0  0  0  0  0  0
    9.1812   14.3117  -18.8762 H   0  0  0  0  0  0  0  0  0  0  0  0
   11.0768   13.5176  -19.0871 C   0  0  0  0  0  0  0  0  0  0  0  0
   13.3846   13.8337  -19.0538 C   0  0  0  0  0  0  0  0  0  0  0  0
   12.5469   12.8881  -20.8860 C   0  0  0  0  0  0  0  0  0  0  0  0
   11.2765   12.9668  -20.3411 C   0  0  0  0  0  0  0  0  0  0  0  0
   11.2501   12.0540  -22.3538 C   0  0  0  0  0  0  0  0  0  0  0  0
   12.1826   13.9481  -18.4520 N   0  0  0  0  0  0  0  0  0  0  0  0
   13.6529   13.3216  -20.2595 N   0  0  0  0  0  0  0  0  0  0  0  0
   10.4633   12.4264  -21.2990 N   0  0  0  0  0  0  0  0  0  0  0  0
   12.5168   12.3219  -22.1335 N   0  0  0  0  0  0  0  0  0  0  0  0
    9.4617   12.3206  -21.2421 H   0  0  0  0  0  0  0  0  0  0  0  0
   10.5370   13.4566  -13.7912 C   0  0  0  0  0  0  0  0  0  0  0  0
   11.7097   14.4067  -13.8433 C   0  0  0  0  0  0  0  0  0  0  0  0
   12.0784   15.1347  -12.7020 C   0  0  0  0  0  0  0  0  0  0  0  0
   13.1849   15.9848  -12.7281 C   0  0  0  0  0  0  0  0  0  0  0  0
   13.9446   16.1043  -13.8902 C   0  0  0  0  0  0  0  0  0  0  0  0
   13.5949   15.3790  -15.0279 C   0  0  0  0  0  0  0  0  0  0  0  0
   12.4812   14.5374  -15.0066 C   0  0  0  0  0  0  0  0  0  0  0  0
  1  2  1  0  0  0
  1  4  1  0  0  0
  2  3  1  0  0  0
  2  7  1  0  0  0
  3  5  1  0  0  0
 19  5  1  0  0  0
 19 20  1  0  0  0
 21 22  2  0  0  0
 23 24  2  0  0  0
 25 20  2  0  0  0
 10 14  2  0  0  0
 11 15  2  0  0  0
 11 17  1  0  0  0
 12 16  1  0  0  0
 12  9  2  0  0  0
  5  4  1  0  0  0
  7  9  1  0  0  0
 16 13  1  0  0  0
  4  6  2  0  0  0
 20 21  1  0  0  0
 22 23  1  0  0  0
 24 25  1  0  0  0
  9 14  1  0  0  0
 10 15  1  0  0  0
 11 12  1  0  0  0
 13 17  2  0  0  0
  7  8  1  0  0  0
 16 18  1  0  0  0
M  END
> <minimizedAffinity>
-8.45646

$$$$
CHEMBL4649816


 25 28  0  0  0  0  0  0  0  0999 V2000
    9.0698   12.8100  -18.1287 C   0  0  0  0  0  0  0  0  0  0  0  0
   10.5052   12.5548  -18.5898 C   0  0  0  0  0  0  0  0  0  0  0  0
   11.3634   12.4852  -17.3222 C   0  0  0  0  0  0  0  0  0  0  0  0
    9.1416   12.8363  -16.6244 C   0  0  0  0  0  0  0  0  0  0  0  0
   10.4502   12.6688  -16.2248 N   0  0  0  0  0  0  0  0  0  0  0  0
    8.1815   13.0180  -15.8894 O   0  0  0  0  0  0  0  0  0  0  0  0
   10.6449   11.3946  -19.4740 N   0  0  0  0  0  0  0  0  0  0  0  0
   11.0372   10.5523  -19.0846 H   0  0  0  0  0  0  0  0  0  0  0  0
   10.2354   11.4044  -20.7873 C   0  0  0  0  0  0  0  0  0  0  0  0
   10.5264   12.0397  -23.0096 C   0  0  0  0  0  0  0  0  0  0  0  0
    8.6943   10.8610  -22.5546 C   0  0  0  0  0  0  0  0  0  0  0  0
    9.0687   10.8003  -21.2230 C   0  0  0  0  0  0  0  0  0  0  0  0
    7.1558    9.7541  -21.5852 C   0  0  0  0  0  0  0  0  0  0  0  0
   10.9624   12.0279  -21.7329 N   0  0  0  0  0  0  0  0  0  0  0  0
    9.4127   11.4868  -23.5012 N   0  0  0  0  0  0  0  0  0  0  0  0
    8.0685   10.0865  -20.6224 N   0  0  0  0  0  0  0  0  0  0  0  0
    7.5071   10.2102  -22.7657 N   0  0  0  0  0  0  0  0  0  0  0  0
    8.0099    9.8467  -19.6443 H   0  0  0  0  0  0  0  0  0  0  0  0
   10.8572   12.5169  -14.8423 C   0  0  0  0  0  0  0  0  0  0  0  0
   11.5811   13.7397  -14.3310 C   0  0  0  0  0  0  0  0  0  0  0  0
   12.6128   14.3157  -15.0874 C   0  0  0  0  0  0  0  0  0  0  0  0
   13.2609   15.4692  -14.6430 C   0  0  0  0  0  0  0  0  0  0  0  0
   12.8740   16.0688  -13.4461 C   0  0  0  0  0  0  0  0  0  0  0  0
   11.8437   15.5121  -12.6902 C   0  0  0  0  0  0  0  0  0  0  0  0
   11.2026   14.3516  -13.1277 C   0  0  0  0  0  0  0  0  0  0  0  0
  1  2  1  0  0  0
  1  4  1  0  0  0
  2  3  1  0  0  0
  2  7  1  0  0  0
  3  5  1  0  0  0
 19  5  1  0  0  0
 19 20  1  0  0  0
 21 22  2  0  0  0
 23 24  2  0  0  0
 25 20  2  0  0  0
 10 14  2  0  0  0
 11 15  2  0  0  0
 11 17  1  0  0  0
 12 16  1  0  0  0
 12  9  2  0  0  0
  5  4  1  0  0  0
  7  9  1  0  0  0
 16 13  1  0  0  0
  4  6  2  0  0  0
 20 21  1  0  0  0
 22 23  1  0  0  0
 24 25  1  0  0  0
  9 14  1  0  0  0
 10 15  1  0  0  0
 11 12  1  0  0  0
 13 17  2  0  0  0
  7  8  1  0  0  0
 16 18  1  0  0  0
M  END
> <minimizedAffinity>
-8.39768

$$$$
CHEMBL4649816


 25 28  0  0  0  0  0  0  0  0999 V2000
   12.7321   13.0806  -17.3040 C   0  0  0  0  0  0  0  0  0  0  0  0
   11.2950   13.5819  -17.4510 C   0  0  0  0  0  0  0  0  0  0  0  0
   11.1526   14.7782  -16.5041 C   0  0  0  0  0  0  0  0  0  0  0  0
   13.3751   14.0215  -16.3192 C   0  0  0  0  0  0  0  0  0  0  0  0
   12.4431   14.9410  -15.8878 N   0  0  0  0  0  0  0  0  0  0  0  0
   14.5361   13.9421  -15.9438 O   0  0  0  0  0  0  0  0  0  0  0  0
   10.9049   13.8621  -18.8355 N   0  0  0  0  0  0  0  0  0  0  0  0
   10.9950   14.8096  -19.1658 H   0  0  0  0  0  0  0  0  0  0  0  0
   10.4584   12.8863  -19.6963 C   0  0  0  0  0  0  0  0  0  0  0  0
   10.6792   11.6295  -21.6453 C   0  0  0  0  0  0  0  0  0  0  0  0
    8.8744   11.2201  -20.4092 C   0  0  0  0  0  0  0  0  0  0  0  0
    9.2869   12.1766  -19.4971 C   0  0  0  0  0  0  0  0  0  0  0  0
    7.3767   11.2410  -18.8965 C   0  0  0  0  0  0  0  0  0  0  0  0
   11.1512   12.5759  -20.8077 N   0  0  0  0  0  0  0  0  0  0  0  0
    9.5585   10.9106  -21.5227 N   0  0  0  0  0  0  0  0  0  0  0  0
    8.3122   12.1717  -18.5375 N   0  0  0  0  0  0  0  0  0  0  0  0
    7.6892   10.6488  -20.0264 N   0  0  0  0  0  0  0  0  0  0  0  0
    8.2841   12.7502  -17.7115 H   0  0  0  0  0  0  0  0  0  0  0  0
   12.7592   16.0685  -15.0340 C   0  0  0  0  0  0  0  0  0  0  0  0
   12.6491   15.7143  -13.5701 C   0  0  0  0  0  0  0  0  0  0  0  0
   11.5531   14.9722  -13.1049 C   0  0  0  0  0  0  0  0  0  0  0  0
   11.4622   14.6052  -11.7614 C   0  0  0  0  0  0  0  0  0  0  0  0
   12.4736   14.9619  -10.8716 C   0  0  0  0  0  0  0  0  0  0  0  0
   13.5727   15.6905  -11.3231 C   0  0  0  0  0  0  0  0  0  0  0  0
   13.6589   16.0685  -12.6643 C   0  0  0  0  0  0  0  0  0  0  0  0
  1  2  1  0  0  0
  1  4  1  0  0  0
  2  3  1  0  0  0
  2  7  1  0  0  0
  3  5  1  0  0  0
 19  5  1  0  0  0
 19 20  1  0  0  0
 21 22  2  0  0  0
 23 24  2  0  0  0
 25 20  2  0  0  0
 10 14  2  0  0  0
 11 15  2  0  0  0
 11 17  1  0  0  0
 12 16  1  0  0  0
 12  9  2  0  0  0
  5  4  1  0  0  0
  7  9  1  0  0  0
 16 13  1  0  0  0
  4  6  2  0  0  0
 20 21  1  0  0  0
 22 23  1  0  0  0
 24 25  1  0  0  0
  9 14  1  0  0  0
 10 15  1  0  0  0
 11 12  1  0  0  0
 13 17  2  0  0  0
  7  8  1  0  0  0
 16 18  1  0  0  0
M  END
> <minimizedAffinity>
-8.38249

$$$$
CHEMBL4649816


 25 28  0  0  0  0  0  0  0  0999 V2000
   10.4224   11.7467  -17.1317 C   0  0  0  0  0  0  0  0  0  0  0  0
    9.2723   12.6793  -17.5133 C   0  0  0  0  0  0  0  0  0  0  0  0
    9.5996   14.0460  -16.9026 C   0  0  0  0  0  0  0  0  0  0  0  0
   11.3845   12.6094  -16.3579 C   0  0  0  0  0  0  0  0  0  0  0  0
   10.8678   13.8822  -16.2418 N   0  0  0  0  0  0  0  0  0  0  0  0
   12.4386   12.2136  -15.8812 O   0  0  0  0  0  0  0  0  0  0  0  0
    8.9925   12.7156  -18.9513 N   0  0  0  0  0  0  0  0  0  0  0  0
    9.2964   13.5252  -19.4682 H   0  0  0  0  0  0  0  0  0  0  0  0
    8.3688   11.6851  -19.6158 C   0  0  0  0  0  0  0  0  0  0  0  0
    6.8714    9.9013  -19.6659 C   0  0  0  0  0  0  0  0  0  0  0  0
    7.9958   10.2957  -21.5456 C   0  0  0  0  0  0  0  0  0  0  0  0
    8.6383   11.3585  -20.9336 C   0  0  0  0  0  0  0  0  0  0  0  0
    9.3020   11.0936  -23.0250 C   0  0  0  0  0  0  0  0  0  0  0  0
    7.4521   10.9185  -18.9966 N   0  0  0  0  0  0  0  0  0  0  0  0
    7.0848    9.5238  -20.9307 N   0  0  0  0  0  0  0  0  0  0  0  0
    9.4693   11.8538  -21.9006 N   0  0  0  0  0  0  0  0  0  0  0  0
    8.4166   10.1413  -22.8404 N   0  0  0  0  0  0  0  0  0  0  0  0
   10.0959   12.6387  -21.8052 H   0  0  0  0  0  0  0  0  0  0  0  0
   11.5936   14.9969  -15.6669 C   0  0  0  0  0  0  0  0  0  0  0  0
   11.6255   14.9299  -14.1585 C   0  0  0  0  0  0  0  0  0  0  0  0
   12.6571   15.5603  -13.4466 C   0  0  0  0  0  0  0  0  0  0  0  0
   12.6738   15.5385  -12.0512 C   0  0  0  0  0  0  0  0  0  0  0  0
   11.6512   14.9005  -11.3519 C   0  0  0  0  0  0  0  0  0  0  0  0
   10.6153   14.2790  -12.0470 C   0  0  0  0  0  0  0  0  0  0  0  0
   10.6037   14.2898  -13.4431 C   0  0  0  0  0  0  0  0  0  0  0  0
  1  2  1  0  0  0
  1  4  1  0  0  0
  2  3  1  0  0  0
  2  7  1  0  0  0
  3  5  1  0  0  0
 19  5  1  0  0  0
 19 20  1  0  0  0
 21 22  2  0  0  0
 23 24  2  0  0  0
 25 20  2  0  0  0
 10 14  2  0  0  0
 11 15  2  0  0  0
 11 17  1  0  0  0
 12 16  1  0  0  0
 12  9  2  0  0  0
  5  4  1  0  0  0
  7  9  1  0  0  0
 16 13  1  0  0  0
  4  6  2  0  0  0
 20 21  1  0  0  0
 22 23  1  0  0  0
 24 25  1  0  0  0
  9 14  1  0  0  0
 10 15  1  0  0  0
 11 12  1  0  0  0
 13 17  2  0  0  0
  7  8  1  0  0  0
 16 18  1  0  0  0
M  END
> <minimizedAffinity>
-8.36230

$$$$
CHEMBL3393349


 25 28  0  0  0  0  0  0  0  0999 V2000
   10.9400   13.9204  -13.6822 C   0  0  0  0  0  0  0  0  0  0  0  0
   12.0816   14.7843  -13.5416 C   0  0  0  0  0  0  0  0  0  0  0  0
   12.0791   15.2282  -12.2281 C   0  0  0  0  0  0  0  0  0  0  0  0
   14.0066   16.2882  -12.4692 C   0  0  0  0  0  0  0  0  0  0  0  0
   13.1466   15.2307  -14.3575 C   0  0  0  0  0  0  0  0  0  0  0  0
   10.2543   13.9512  -12.4799 C   0  0  0  0  0  0  0  0  0  0  0  0
   13.0030   15.9905  -11.6273 N   0  0  0  0  0  0  0  0  0  0  0  0
   14.1304   15.9571  -13.7691 N   0  0  0  0  0  0  0  0  0  0  0  0
   10.9540   14.7531  -11.6146 N   0  0  0  0  0  0  0  0  0  0  0  0
   10.7162   14.9486  -10.6530 H   0  0  0  0  0  0  0  0  0  0  0  0
   12.0854   15.4510  -16.5082 C   0  0  0  0  0  0  0  0  0  0  0  0
   12.0582   14.7595  -17.8894 C   0  0  0  0  0  0  0  0  0  0  0  0
   14.4546   14.3736  -17.7522 C   0  0  0  0  0  0  0  0  0  0  0  0
   14.5102   15.0886  -16.3794 C   0  0  0  0  0  0  0  0  0  0  0  0
   13.2901   14.0547  -19.8591 C   0  0  0  0  0  0  0  0  0  0  0  0
   13.2138   14.9469  -15.7128 N   0  0  0  0  0  0  0  0  0  0  0  0
   13.3414   14.8314  -18.6186 N   0  0  0  0  0  0  0  0  0  0  0  0
    9.0084   12.6043  -16.6293 C   0  0  0  0  0  0  0  0  0  0  0  0
    9.4464   13.4369  -15.5939 C   0  0  0  0  0  0  0  0  0  0  0  0
   10.5409   13.0720  -14.7968 C   0  0  0  0  0  0  0  0  0  0  0  0
   11.2196   11.8806  -15.0796 C   0  0  0  0  0  0  0  0  0  0  0  0
   10.7970   11.0564  -16.1264 C   0  0  0  0  0  0  0  0  0  0  0  0
    9.6883   11.4129  -16.8954 C   0  0  0  0  0  0  0  0  0  0  0  0
    7.8344   12.9473  -17.3779 C   0  0  0  0  0  0  0  0  0  0  0  0
    6.8698   13.2108  -17.9658 N   0  0  0  0  0  0  0  0  0  0  0  0
 18 24  1  0  0  0
 19 20  2  0  0  0
 20  1  1  0  0  0
 21 22  2  0  0  0
 23 18  2  0  0  0
  1  2  1  0  0  0
  2  3  2  0  0  0
  3  9  1  0  0  0
  4  7  2  0  0  0
  5  8  2  0  0  0
  5 16  1  0  0  0
 11 16  1  0  0  0
 11 12  1  0  0  0
 12 17  1  0  0  0
 13 17  1  0  0  0
 13 14  1  0  0  0
 14 16  1  0  0  0
 15 17  1  0  0  0
  9  6  1  0  0  0
 18 19  1  0  0  0
 20 21  1  0  0  0
 22 23  1  0  0  0
  3  7  1  0  0  0
  4  8  1  0  0  0
  5  2  1  0  0  0
  6  1  2  0  0  0
 24 25  3  0  0  0
  9 10  1  0  0  0
M  END
> <minimizedAffinity>
-9.13224

$$$$
CHEMBL3393349


 25 28  0  0  0  0  0  0  0  0999 V2000
   13.4704   14.0286  -16.9894 C   0  0  0  0  0  0  0  0  0  0  0  0
   14.1296   15.1018  -16.2945 C   0  0  0  0  0  0  0  0  0  0  0  0
   15.1439   15.5459  -17.1288 C   0  0  0  0  0  0  0  0  0  0  0  0
   15.6820   17.2069  -15.7693 C   0  0  0  0  0  0  0  0  0  0  0  0
   13.9793   15.7831  -15.0646 C   0  0  0  0  0  0  0  0  0  0  0  0
   14.1674   13.8157  -18.1665 C   0  0  0  0  0  0  0  0  0  0  0  0
   15.9653   16.5851  -16.9257 N   0  0  0  0  0  0  0  0  0  0  0  0
   14.7554   16.8754  -14.8495 N   0  0  0  0  0  0  0  0  0  0  0  0
   15.1807   14.7379  -18.2306 N   0  0  0  0  0  0  0  0  0  0  0  0
   15.8435   14.8492  -18.9840 H   0  0  0  0  0  0  0  0  0  0  0  0
   13.4259   15.7590  -12.7208 C   0  0  0  0  0  0  0  0  0  0  0  0
   12.5895   14.9408  -11.7119 C   0  0  0  0  0  0  0  0  0  0  0  0
   10.8382   14.6647  -13.3754 C   0  0  0  0  0  0  0  0  0  0  0  0
   11.6467   15.5067  -14.3936 C   0  0  0  0  0  0  0  0  0  0  0  0
   10.4081   14.1042  -11.0521 C   0  0  0  0  0  0  0  0  0  0  0  0
   13.0748   15.3766  -14.0958 N   0  0  0  0  0  0  0  0  0  0  0  0
   11.1338   14.9950  -11.9601 N   0  0  0  0  0  0  0  0  0  0  0  0
    9.8466   13.0279  -16.8633 C   0  0  0  0  0  0  0  0  0  0  0  0
   11.0337   13.6737  -17.2255 C   0  0  0  0  0  0  0  0  0  0  0  0
   12.2560   13.3002  -16.6486 C   0  0  0  0  0  0  0  0  0  0  0  0
   12.2798   12.2395  -15.7350 C   0  0  0  0  0  0  0  0  0  0  0  0
   11.0984   11.5789  -15.3863 C   0  0  0  0  0  0  0  0  0  0  0  0
    9.8822   11.9772  -15.9430 C   0  0  0  0  0  0  0  0  0  0  0  0
    8.5934   13.4794  -17.3943 C   0  0  0  0  0  0  0  0  0  0  0  0
    7.5856   13.8326  -17.8472 N   0  0  0  0  0  0  0  0  0  0  0  0
 18 24  1  0  0  0
 19 20  2  0  0  0
 20  1  1  0  0  0
 21 22  2  0  0  0
 23 18  2  0  0  0
  1  2  1  0  0  0
  2  3  2  0  0  0
  3  9  1  0  0  0
  4  7  2  0  0  0
  5  8  2  0  0  0
  5 16  1  0  0  0
 11 16  1  0  0  0
 11 12  1  0  0  0
 12 17  1  0  0  0
 13 17  1  0  0  0
 13 14  1  0  0  0
 14 16  1  0  0  0
 15 17  1  0  0  0
  9  6  1  0  0  0
 18 19  1  0  0  0
 20 21  1  0  0  0
 22 23  1  0  0  0
  3  7  1  0  0  0
  4  8  1  0  0  0
  5  2  1  0  0  0
  6  1  2  0  0  0
 24 25  3  0  0  0
  9 10  1  0  0  0
M  END
> <minimizedAffinity>
-8.57393

$$$$
CHEMBL3393349


 25 28  0  0  0  0  0  0  0  0999 V2000
   13.5835   15.6588  -13.5285 C   0  0  0  0  0  0  0  0  0  0  0  0
   12.2917   15.0331  -13.4327 C   0  0  0  0  0  0  0  0  0  0  0  0
   11.8916   15.1583  -12.1111 C   0  0  0  0  0  0  0  0  0  0  0  0
    9.9047   14.2720  -12.5161 C   0  0  0  0  0  0  0  0  0  0  0  0
   11.3848   14.3949  -14.3098 C   0  0  0  0  0  0  0  0  0  0  0  0
   13.9420   16.0528  -12.2507 C   0  0  0  0  0  0  0  0  0  0  0  0
   10.7172   14.7908  -11.5805 N   0  0  0  0  0  0  0  0  0  0  0  0
   10.1637   14.0606  -13.8210 N   0  0  0  0  0  0  0  0  0  0  0  0
   12.9096   15.7355  -11.4052 N   0  0  0  0  0  0  0  0  0  0  0  0
   12.8668   15.9235  -10.4141 H   0  0  0  0  0  0  0  0  0  0  0  0
   12.0153   12.7038  -15.9044 C   0  0  0  0  0  0  0  0  0  0  0  0
   12.7197   12.5735  -17.2732 C   0  0  0  0  0  0  0  0  0  0  0  0
   11.6396   14.6150  -18.0322 C   0  0  0  0  0  0  0  0  0  0  0  0
   10.9006   14.7499  -16.6777 C   0  0  0  0  0  0  0  0  0  0  0  0
   12.7636   13.1686  -19.6265 C   0  0  0  0  0  0  0  0  0  0  0  0
   11.7013   14.1131  -15.6298 N   0  0  0  0  0  0  0  0  0  0  0  0
   11.9890   13.2174  -18.3846 N   0  0  0  0  0  0  0  0  0  0  0  0
   15.9969   17.3860  -15.8397 C   0  0  0  0  0  0  0  0  0  0  0  0
   15.2530   17.0577  -14.7012 C   0  0  0  0  0  0  0  0  0  0  0  0
   14.3991   15.9453  -14.7007 C   0  0  0  0  0  0  0  0  0  0  0  0
   14.3338   15.1389  -15.8433 C   0  0  0  0  0  0  0  0  0  0  0  0
   15.0912   15.4526  -16.9755 C   0  0  0  0  0  0  0  0  0  0  0  0
   15.9155   16.5788  -16.9773 C   0  0  0  0  0  0  0  0  0  0  0  0
   16.7969   18.5760  -15.8555 C   0  0  0  0  0  0  0  0  0  0  0  0
   17.4615   19.5262  -15.8846 N   0  0  0  0  0  0  0  0  0  0  0  0
 18 24  1  0  0  0
 19 20  2  0  0  0
 20  1  1  0  0  0
 21 22  2  0  0  0
 23 18  2  0  0  0
  1  2  1  0  0  0
  2  3  2  0  0  0
  3  9  1  0  0  0
  4  7  2  0  0  0
  5  8  2  0  0  0
  5 16  1  0  0  0
 11 16  1  0  0  0
 11 12  1  0  0  0
 12 17  1  0  0  0
 13 17  1  0  0  0
 13 14  1  0  0  0
 14 16  1  0  0  0
 15 17  1  0  0  0
  9  6  1  0  0  0
 18 19  1  0  0  0
 20 21  1  0  0  0
 22 23  1  0  0  0
  3  7  1  0  0  0
  4  8  1  0  0  0
  5  2  1  0  0  0
  6  1  2  0  0  0
 24 25  3  0  0  0
  9 10  1  0  0  0
M  END
> <minimizedAffinity>
-8.19633

$$$$
CHEMBL3393349


 25 28  0  0  0  0  0  0  0  0999 V2000
   14.4887   16.3541  -14.4381 C   0  0  0  0  0  0  0  0  0  0  0  0
   14.8461   15.9429  -15.7694 C   0  0  0  0  0  0  0  0  0  0  0  0
   15.8854   16.7686  -16.1700 C   0  0  0  0  0  0  0  0  0  0  0  0
   16.1712   15.6683  -18.0686 C   0  0  0  0  0  0  0  0  0  0  0  0
   14.4398   14.9477  -16.6880 C   0  0  0  0  0  0  0  0  0  0  0  0
   15.2633   17.4595  -14.1305 C   0  0  0  0  0  0  0  0  0  0  0  0
   16.5867   16.6958  -17.3096 N   0  0  0  0  0  0  0  0  0  0  0  0
   15.1633   14.8077  -17.8276 N   0  0  0  0  0  0  0  0  0  0  0  0
   16.0972   17.7001  -15.1926 N   0  0  0  0  0  0  0  0  0  0  0  0
   16.7971   18.4253  -15.2532 H   0  0  0  0  0  0  0  0  0  0  0  0
   12.2386   14.2861  -17.4072 C   0  0  0  0  0  0  0  0  0  0  0  0
   10.9572   13.6328  -16.8433 C   0  0  0  0  0  0  0  0  0  0  0  0
   12.3088   12.1100  -15.5149 C   0  0  0  0  0  0  0  0  0  0  0  0
   13.6064   12.7309  -16.0891 C   0  0  0  0  0  0  0  0  0  0  0  0
    9.9290   11.7068  -15.7817 C   0  0  0  0  0  0  0  0  0  0  0  0
   13.3482   14.1248  -16.4572 N   0  0  0  0  0  0  0  0  0  0  0  0
   11.1395   12.2290  -16.4194 N   0  0  0  0  0  0  0  0  0  0  0  0
   11.4085   14.7226  -13.0239 C   0  0  0  0  0  0  0  0  0  0  0  0
   12.3327   15.2524  -13.9308 C   0  0  0  0  0  0  0  0  0  0  0  0
   13.5678   15.7464  -13.4872 C   0  0  0  0  0  0  0  0  0  0  0  0
   13.8836   15.6620  -12.1259 C   0  0  0  0  0  0  0  0  0  0  0  0
   12.9706   15.1147  -11.2199 C   0  0  0  0  0  0  0  0  0  0  0  0
   11.7316   14.6530  -11.6663 C   0  0  0  0  0  0  0  0  0  0  0  0
   10.1152   14.3036  -13.4799 C   0  0  0  0  0  0  0  0  0  0  0  0
    9.0717   13.9418  -13.8345 N   0  0  0  0  0  0  0  0  0  0  0  0
 18 24  1  0  0  0
 19 20  2  0  0  0
 20  1  1  0  0  0
 21 22  2  0  0  0
 23 18  2  0  0  0
  1  2  1  0  0  0
  2  3  2  0  0  0
  3  9  1  0  0  0
  4  7  2  0  0  0
  5  8  2  0  0  0
  5 16  1  0  0  0
 11 16  1  0  0  0
 11 12  1  0  0  0
 12 17  1  0  0  0
 13 17  1  0  0  0
 13 14  1  0  0  0
 14 16  1  0  0  0
 15 17  1  0  0  0
  9  6  1  0  0  0
 18 19  1  0  0  0
 20 21  1  0  0  0
 22 23  1  0  0  0
  3  7  1  0  0  0
  4  8  1  0  0  0
  5  2  1  0  0  0
  6  1  2  0  0  0
 24 25  3  0  0  0
  9 10  1  0  0  0
M  END
> <minimizedAffinity>
-8.05340

$$$$
CHEMBL3393349


 25 28  0  0  0  0  0  0  0  0999 V2000
   10.1655   13.7526  -15.3571 C   0  0  0  0  0  0  0  0  0  0  0  0
   10.0263   13.3019  -16.7161 C   0  0  0  0  0  0  0  0  0  0  0  0
    8.7847   12.6910  -16.8024 C   0  0  0  0  0  0  0  0  0  0  0  0
    8.9726   12.3732  -18.9842 C   0  0  0  0  0  0  0  0  0  0  0  0
   10.7870   13.3581  -17.9067 C   0  0  0  0  0  0  0  0  0  0  0  0
    9.0469   13.3185  -14.6666 C   0  0  0  0  0  0  0  0  0  0  0  0
    8.1990   12.1946  -17.9007 N   0  0  0  0  0  0  0  0  0  0  0  0
   10.2034   12.9168  -19.0497 N   0  0  0  0  0  0  0  0  0  0  0  0
    8.2260   12.6719  -15.5552 N   0  0  0  0  0  0  0  0  0  0  0  0
    7.3232   12.2677  -15.3527 H   0  0  0  0  0  0  0  0  0  0  0  0
   13.0733   13.0251  -17.2270 C   0  0  0  0  0  0  0  0  0  0  0  0
   14.3663   13.8367  -16.9898 C   0  0  0  0  0  0  0  0  0  0  0  0
   13.8648   15.2170  -18.9273 C   0  0  0  0  0  0  0  0  0  0  0  0
   12.5787   14.3984  -19.2010 C   0  0  0  0  0  0  0  0  0  0  0  0
   16.0662   15.3078  -17.9063 C   0  0  0  0  0  0  0  0  0  0  0  0
   12.0838   13.8473  -17.9375 N   0  0  0  0  0  0  0  0  0  0  0  0
   14.9175   14.4533  -18.2144 N   0  0  0  0  0  0  0  0  0  0  0  0
   12.5041   15.1911  -12.7860 C   0  0  0  0  0  0  0  0  0  0  0  0
   11.5600   14.3675  -13.4087 C   0  0  0  0  0  0  0  0  0  0  0  0
   11.1983   14.5787  -14.7470 C   0  0  0  0  0  0  0  0  0  0  0  0
   11.8287   15.6000  -15.4677 C   0  0  0  0  0  0  0  0  0  0  0  0
   12.7873   16.4117  -14.8544 C   0  0  0  0  0  0  0  0  0  0  0  0
   13.1191   16.2134  -13.5134 C   0  0  0  0  0  0  0  0  0  0  0  0
   12.7981   15.0196  -11.3930 C   0  0  0  0  0  0  0  0  0  0  0  0
   13.0253   14.8562  -10.2673 N   0  0  0  0  0  0  0  0  0  0  0  0
 18 24  1  0  0  0
 19 20  2  0  0  0
 20  1  1  0  0  0
 21 22  2  0  0  0
 23 18  2  0  0  0
  1  2  1  0  0  0
  2  3  2  0  0  0
  3  9  1  0  0  0
  4  7  2  0  0  0
  5  8  2  0  0  0
  5 16  1  0  0  0
 11 16  1  0  0  0
 11 12  1  0  0  0
 12 17  1  0  0  0
 13 17  1  0  0  0
 13 14  1  0  0  0
 14 16  1  0  0  0
 15 17  1  0  0  0
  9  6  1  0  0  0
 18 19  1  0  0  0
 20 21  1  0  0  0
 22 23  1  0  0  0
  3  7  1  0  0  0
  4  8  1  0  0  0
  5  2  1  0  0  0
  6  1  2  0  0  0
 24 25  3  0  0  0
  9 10  1  0  0  0
M  END
> <minimizedAffinity>
-7.80831

$$$$
CHEMBL3393349


 25 28  0  0  0  0  0  0  0  0999 V2000
   11.6861   14.4847  -16.5111 C   0  0  0  0  0  0  0  0  0  0  0  0
   12.9604   14.8100  -17.0936 C   0  0  0  0  0  0  0  0  0  0  0  0
   13.7046   15.4199  -16.0953 C   0  0  0  0  0  0  0  0  0  0  0  0
   15.5135   15.5350  -17.3649 C   0  0  0  0  0  0  0  0  0  0  0  0
   13.5995   14.6393  -18.3433 C   0  0  0  0  0  0  0  0  0  0  0  0
   11.6860   14.9886  -15.2216 C   0  0  0  0  0  0  0  0  0  0  0  0
   14.9824   15.8179  -16.1639 N   0  0  0  0  0  0  0  0  0  0  0  0
   14.9105   14.9784  -18.4331 N   0  0  0  0  0  0  0  0  0  0  0  0
   12.9126   15.5573  -14.9900 N   0  0  0  0  0  0  0  0  0  0  0  0
   13.2223   15.9851  -14.1295 H   0  0  0  0  0  0  0  0  0  0  0  0
   12.7314   15.1077  -20.5404 C   0  0  0  0  0  0  0  0  0  0  0  0
   11.6694   14.5783  -21.5296 C   0  0  0  0  0  0  0  0  0  0  0  0
   12.2110   12.2933  -20.9003 C   0  0  0  0  0  0  0  0  0  0  0  0
   13.3010   12.8007  -19.9238 C   0  0  0  0  0  0  0  0  0  0  0  0
   10.8464   12.7236  -22.8624 C   0  0  0  0  0  0  0  0  0  0  0  0
   12.9375   14.1395  -19.4541 N   0  0  0  0  0  0  0  0  0  0  0  0
   11.9466   13.2161  -22.0308 N   0  0  0  0  0  0  0  0  0  0  0  0
    8.2269   13.5595  -17.6632 C   0  0  0  0  0  0  0  0  0  0  0  0
    9.3175   14.3043  -17.2016 C   0  0  0  0  0  0  0  0  0  0  0  0
   10.5793   13.7101  -17.0556 C   0  0  0  0  0  0  0  0  0  0  0  0
   10.7445   12.3687  -17.4210 C   0  0  0  0  0  0  0  0  0  0  0  0
    9.6614   11.6273  -17.9018 C   0  0  0  0  0  0  0  0  0  0  0  0
    8.4025   12.2188  -18.0154 C   0  0  0  0  0  0  0  0  0  0  0  0
    6.9243   14.1561  -17.7227 C   0  0  0  0  0  0  0  0  0  0  0  0
    5.8661   14.6258  -17.7940 N   0  0  0  0  0  0  0  0  0  0  0  0
 18 24  1  0  0  0
 19 20  2  0  0  0
 20  1  1  0  0  0
 21 22  2  0  0  0
 23 18  2  0  0  0
  1  2  1  0  0  0
  2  3  2  0  0  0
  3  9  1  0  0  0
  4  7  2  0  0  0
  5  8  2  0  0  0
  5 16  1  0  0  0
 11 16  1  0  0  0
 11 12  1  0  0  0
 12 17  1  0  0  0
 13 17  1  0  0  0
 13 14  1  0  0  0
 14 16  1  0  0  0
 15 17  1  0  0  0
  9  6  1  0  0  0
 18 19  1  0  0  0
 20 21  1  0  0  0
 22 23  1  0  0  0
  3  7  1  0  0  0
  4  8  1  0  0  0
  5  2  1  0  0  0
  6  1  2  0  0  0
 24 25  3  0  0  0
  9 10  1  0  0  0
M  END
> <minimizedAffinity>
-7.49376

$$$$
CHEMBL3393349


 25 28  0  0  0  0  0  0  0  0999 V2000
   11.8185   13.9738  -18.8998 C   0  0  0  0  0  0  0  0  0  0  0  0
   12.9418   14.4250  -18.1228 C   0  0  0  0  0  0  0  0  0  0  0  0
   13.9786   14.6386  -19.0182 C   0  0  0  0  0  0  0  0  0  0  0  0
   15.3105   15.4508  -17.4487 C   0  0  0  0  0  0  0  0  0  0  0  0
   13.2107   14.7121  -16.7646 C   0  0  0  0  0  0  0  0  0  0  0  0
   12.2507   13.8513  -20.2092 C   0  0  0  0  0  0  0  0  0  0  0  0
   15.1925   15.1389  -18.7499 N   0  0  0  0  0  0  0  0  0  0  0  0
   14.4091   15.2733  -16.4636 N   0  0  0  0  0  0  0  0  0  0  0  0
   13.5619   14.2508  -20.2608 N   0  0  0  0  0  0  0  0  0  0  0  0
   14.1427   14.2973  -21.0853 H   0  0  0  0  0  0  0  0  0  0  0  0
   12.1402   13.0238  -15.4216 C   0  0  0  0  0  0  0  0  0  0  0  0
   10.8542   12.8128  -14.5919 C   0  0  0  0  0  0  0  0  0  0  0  0
   10.9915   15.1010  -13.7823 C   0  0  0  0  0  0  0  0  0  0  0  0
   12.2980   15.3259  -14.5834 C   0  0  0  0  0  0  0  0  0  0  0  0
    9.4687   13.5284  -12.7312 C   0  0  0  0  0  0  0  0  0  0  0  0
   12.2990   14.4464  -15.7545 N   0  0  0  0  0  0  0  0  0  0  0  0
   10.7602   13.6859  -13.4035 N   0  0  0  0  0  0  0  0  0  0  0  0
    8.4215   12.3830  -18.6188 C   0  0  0  0  0  0  0  0  0  0  0  0
    9.7671   12.5919  -18.9398 C   0  0  0  0  0  0  0  0  0  0  0  0
   10.4372   13.7425  -18.4998 C   0  0  0  0  0  0  0  0  0  0  0  0
    9.7525   14.6612  -17.6953 C   0  0  0  0  0  0  0  0  0  0  0  0
    8.4138   14.4453  -17.3560 C   0  0  0  0  0  0  0  0  0  0  0  0
    7.7463   13.3123  -17.8233 C   0  0  0  0  0  0  0  0  0  0  0  0
    7.7253   11.2473  -19.1496 C   0  0  0  0  0  0  0  0  0  0  0  0
    7.1389   10.3395  -19.5710 N   0  0  0  0  0  0  0  0  0  0  0  0
 18 24  1  0  0  0
 19 20  2  0  0  0
 20  1  1  0  0  0
 21 22  2  0  0  0
 23 18  2  0  0  0
  1  2  1  0  0  0
  2  3  2  0  0  0
  3  9  1  0  0  0
  4  7  2  0  0  0
  5  8  2  0  0  0
  5 16  1  0  0  0
 11 16  1  0  0  0
 11 12  1  0  0  0
 12 17  1  0  0  0
 13 17  1  0  0  0
 13 14  1  0  0  0
 14 16  1  0  0  0
 15 17  1  0  0  0
  9  6  1  0  0  0
 18 19  1  0  0  0
 20 21  1  0  0  0
 22 23  1  0  0  0
  3  7  1  0  0  0
  4  8  1  0  0  0
  5  2  1  0  0  0
  6  1  2  0  0  0
 24 25  3  0  0  0
  9 10  1  0  0  0
M  END
> <minimizedAffinity>
-7.49033

$$$$
CHEMBL3393349


 25 28  0  0  0  0  0  0  0  0999 V2000
   13.7591   15.6174  -14.9986 C   0  0  0  0  0  0  0  0  0  0  0  0
   14.4044   15.6547  -16.2836 C   0  0  0  0  0  0  0  0  0  0  0  0
   15.5260   16.4565  -16.1370 C   0  0  0  0  0  0  0  0  0  0  0  0
   16.2170   16.0529  -18.2002 C   0  0  0  0  0  0  0  0  0  0  0  0
   14.1986   15.0833  -17.5605 C   0  0  0  0  0  0  0  0  0  0  0  0
   14.4662   16.4639  -14.1619 C   0  0  0  0  0  0  0  0  0  0  0  0
   16.4691   16.7085  -17.0551 N   0  0  0  0  0  0  0  0  0  0  0  0
   15.1619   15.2702  -18.4980 N   0  0  0  0  0  0  0  0  0  0  0  0
   15.5275   16.9682  -14.8697 N   0  0  0  0  0  0  0  0  0  0  0  0
   16.2383   17.5941  -14.5199 H   0  0  0  0  0  0  0  0  0  0  0  0
   11.8371   15.1392  -18.0300 C   0  0  0  0  0  0  0  0  0  0  0  0
   10.5999   14.2152  -17.9813 C   0  0  0  0  0  0  0  0  0  0  0  0
   11.9500   12.3527  -18.7677 C   0  0  0  0  0  0  0  0  0  0  0  0
   13.1970   13.2676  -18.8518 C   0  0  0  0  0  0  0  0  0  0  0  0
    9.5284   12.1741  -18.7424 C   0  0  0  0  0  0  0  0  0  0  0  0
   13.0654   14.3478  -17.8715 N   0  0  0  0  0  0  0  0  0  0  0  0
   10.6660   13.0784  -18.9230 N   0  0  0  0  0  0  0  0  0  0  0  0
   11.3229   12.7692  -14.6790 C   0  0  0  0  0  0  0  0  0  0  0  0
   12.4352   13.5285  -15.0577 C   0  0  0  0  0  0  0  0  0  0  0  0
   12.6308   14.8176  -14.5415 C   0  0  0  0  0  0  0  0  0  0  0  0
   11.7190   15.3198  -13.6053 C   0  0  0  0  0  0  0  0  0  0  0  0
   10.6175   14.5557  -13.2095 C   0  0  0  0  0  0  0  0  0  0  0  0
   10.4146   13.2855  -13.7511 C   0  0  0  0  0  0  0  0  0  0  0  0
   11.0887   11.4895  -15.2821 C   0  0  0  0  0  0  0  0  0  0  0  0
   10.8728   10.4581  -15.7668 N   0  0  0  0  0  0  0  0  0  0  0  0
 18 24  1  0  0  0
 19 20  2  0  0  0
 20  1  1  0  0  0
 21 22  2  0  0  0
 23 18  2  0  0  0
  1  2  1  0  0  0
  2  3  2  0  0  0
  3  9  1  0  0  0
  4  7  2  0  0  0
  5  8  2  0  0  0
  5 16  1  0  0  0
 11 16  1  0  0  0
 11 12  1  0  0  0
 12 17  1  0  0  0
 13 17  1  0  0  0
 13 14  1  0  0  0
 14 16  1  0  0  0
 15 17  1  0  0  0
  9  6  1  0  0  0
 18 19  1  0  0  0
 20 21  1  0  0  0
 22 23  1  0  0  0
  3  7  1  0  0  0
  4  8  1  0  0  0
  5  2  1  0  0  0
  6  1  2  0  0  0
 24 25  3  0  0  0
  9 10  1  0  0  0
M  END
> <minimizedAffinity>
-7.41462

$$$$
CHEMBL3393349


 25 28  0  0  0  0  0  0  0  0999 V2000
   13.2711   15.4069  -12.9106 C   0  0  0  0  0  0  0  0  0  0  0  0
   11.9744   14.7903  -12.8232 C   0  0  0  0  0  0  0  0  0  0  0  0
   11.6570   14.7321  -11.4748 C   0  0  0  0  0  0  0  0  0  0  0  0
    9.6311   13.9370  -11.8754 C   0  0  0  0  0  0  0  0  0  0  0  0
   11.0031   14.2941  -13.7230 C   0  0  0  0  0  0  0  0  0  0  0  0
   13.7139   15.6116  -11.6150 C   0  0  0  0  0  0  0  0  0  0  0  0
   10.5090   14.3080  -10.9288 N   0  0  0  0  0  0  0  0  0  0  0  0
    9.8067   13.9093  -13.2107 N   0  0  0  0  0  0  0  0  0  0  0  0
   12.7276   15.1908  -10.7596 N   0  0  0  0  0  0  0  0  0  0  0  0
   12.7484   15.2371   -9.7513 H   0  0  0  0  0  0  0  0  0  0  0  0
   11.1447   12.8377  -15.6358 C   0  0  0  0  0  0  0  0  0  0  0  0
   11.7903   12.7878  -17.0385 C   0  0  0  0  0  0  0  0  0  0  0  0
   11.3232   15.1537  -17.3463 C   0  0  0  0  0  0  0  0  0  0  0  0
   10.6456   15.2201  -15.9550 C   0  0  0  0  0  0  0  0  0  0  0  0
   12.0068   13.7928  -19.2378 C   0  0  0  0  0  0  0  0  0  0  0  0
   11.2338   14.1979  -15.0866 N   0  0  0  0  0  0  0  0  0  0  0  0
   11.2716   13.8097  -17.9713 N   0  0  0  0  0  0  0  0  0  0  0  0
   14.8066   15.4241  -16.3444 C   0  0  0  0  0  0  0  0  0  0  0  0
   14.0417   15.0508  -15.2341 C   0  0  0  0  0  0  0  0  0  0  0  0
   14.0208   15.8463  -14.0795 C   0  0  0  0  0  0  0  0  0  0  0  0
   14.7429   17.0457  -14.0681 C   0  0  0  0  0  0  0  0  0  0  0  0
   15.4920   17.4317  -15.1833 C   0  0  0  0  0  0  0  0  0  0  0  0
   15.5308   16.6187  -16.3170 C   0  0  0  0  0  0  0  0  0  0  0  0
   14.8888   14.5569  -17.4834 C   0  0  0  0  0  0  0  0  0  0  0  0
   14.9790   13.8665  -18.4112 N   0  0  0  0  0  0  0  0  0  0  0  0
 18 24  1  0  0  0
 19 20  2  0  0  0
 20  1  1  0  0  0
 21 22  2  0  0  0
 23 18  2  0  0  0
  1  2  1  0  0  0
  2  3  2  0  0  0
  3  9  1  0  0  0
  4  7  2  0  0  0
  5  8  2  0  0  0
  5 16  1  0  0  0
 11 16  1  0  0  0
 11 12  1  0  0  0
 12 17  1  0  0  0
 13 17  1  0  0  0
 13 14  1  0  0  0
 14 16  1  0  0  0
 15 17  1  0  0  0
  9  6  1  0  0  0
 18 19  1  0  0  0
 20 21  1  0  0  0
 22 23  1  0  0  0
  3  7  1  0  0  0
  4  8  1  0  0  0
  5  2  1  0  0  0
  6  1  2  0  0  0
 24 25  3  0  0  0
  9 10  1  0  0  0
M  END
> <minimizedAffinity>
-7.40673

$$$$
CHEMBL3715062


 26 28  0  0  0  0  0  0  0  0999 V2000
    9.5288   13.5422  -13.9398 N   0  0  0  0  0  0  0  0  0  0  0  0
   10.4816   14.6524  -12.0189 N   0  0  0  0  0  0  0  0  0  0  0  0
   12.5475   15.7564  -12.4935 N   0  0  0  0  0  0  0  0  0  0  0  0
    9.5615   13.9034  -12.6437 C   0  0  0  0  0  0  0  0  0  0  0  0
   11.4719   14.9958  -12.8537 C   0  0  0  0  0  0  0  0  0  0  0  0
   11.5917   14.6715  -14.1963 C   0  0  0  0  0  0  0  0  0  0  0  0
   10.5203   13.9554  -14.7766 C   0  0  0  0  0  0  0  0  0  0  0  0
   12.8690   15.1724  -14.6156 C   0  0  0  0  0  0  0  0  0  0  0  0
   13.4041   15.9105  -13.5581 C   0  0  0  0  0  0  0  0  0  0  0  0
   14.6044   16.6215  -13.6619 C   0  0  0  0  0  0  0  0  0  0  0  0
   15.2705   16.5900  -14.8939 C   0  0  0  0  0  0  0  0  0  0  0  0
   14.7899   15.8293  -15.9646 C   0  0  0  0  0  0  0  0  0  0  0  0
   13.6242   15.0705  -15.8046 C   0  0  0  0  0  0  0  0  0  0  0  0
   12.6789   16.1366  -11.5687 H   0  0  0  0  0  0  0  0  0  0  0  0
   15.9888   17.0823  -17.7021 N   0  0  0  0  0  0  0  0  0  0  0  0
   15.5289   15.8722  -17.2581 C   0  0  0  0  0  0  0  0  0  0  0  0
   15.7610   14.8534  -17.8987 O   0  0  0  0  0  0  0  0  0  0  0  0
   16.5071   17.0839  -18.5711 H   0  0  0  0  0  0  0  0  0  0  0  0
   15.8969   17.9553  -17.2076 H   0  0  0  0  0  0  0  0  0  0  0  0
   10.4215   13.6446  -16.1258 N   0  0  0  0  0  0  0  0  0  0  0  0
    9.9528   14.6955  -17.0266 C   0  0  0  0  0  0  0  0  0  0  0  0
    9.0967   14.0705  -18.1351 C   0  0  0  0  0  0  0  0  0  0  0  0
    7.7256   13.6520  -17.6342 C   0  0  0  0  0  0  0  0  0  0  0  0
   11.1436   12.4992  -16.6706 C   0  0  0  0  0  0  0  0  0  0  0  0
   10.6772   11.1572  -16.1118 C   0  0  0  0  0  0  0  0  0  0  0  0
   11.7738   10.5405  -15.2484 C   0  0  0  0  0  0  0  0  0  0  0  0
  3  5  1  0  0  0
  4  2  2  0  0  0
  5  6  2  0  0  0
  6  8  1  0  0  0
  7 20  1  0  0  0
  7  1  2  0  0  0
 21 20  1  0  0  0
 21 22  1  0  0  0
 22 23  1  0  0  0
 24 20  1  0  0  0
 24 25  1  0  0  0
 25 26  1  0  0  0
  9  3  1  0  0  0
  9 10  2  0  0  0
 11 12  2  0  0  0
 12 16  1  0  0  0
 13  8  2  0  0  0
 16 15  1  0  0  0
  4  1  1  0  0  0
  5  2  1  0  0  0
  6  7  1  0  0  0
  8  9  1  0  0  0
 10 11  1  0  0  0
 12 13  1  0  0  0
 16 17  2  0  0  0
  3 14  1  0  0  0
 15 18  1  0  0  0
 15 19  1  0  0  0
M  END
> <minimizedAffinity>
-8.65653

$$$$
CHEMBL3715062


 26 28  0  0  0  0  0  0  0  0999 V2000
   14.2632   14.8898  -17.8414 N   0  0  0  0  0  0  0  0  0  0  0  0
   15.6499   16.3563  -16.5161 N   0  0  0  0  0  0  0  0  0  0  0  0
   14.9492   16.5152  -14.2366 N   0  0  0  0  0  0  0  0  0  0  0  0
   15.2808   15.7506  -17.6540 C   0  0  0  0  0  0  0  0  0  0  0  0
   14.8198   16.0434  -15.5118 C   0  0  0  0  0  0  0  0  0  0  0  0
   13.7173   15.2044  -15.5612 C   0  0  0  0  0  0  0  0  0  0  0  0
   13.4720   14.5465  -16.7878 C   0  0  0  0  0  0  0  0  0  0  0  0
   13.0979   15.2824  -14.2694 C   0  0  0  0  0  0  0  0  0  0  0  0
   13.9301   16.0412  -13.4443 C   0  0  0  0  0  0  0  0  0  0  0  0
   13.6728   16.2365  -12.0831 C   0  0  0  0  0  0  0  0  0  0  0  0
   12.5354   15.6208  -11.5449 C   0  0  0  0  0  0  0  0  0  0  0  0
   11.6541   14.8874  -12.3459 C   0  0  0  0  0  0  0  0  0  0  0  0
   11.9017   14.7721  -13.7190 C   0  0  0  0  0  0  0  0  0  0  0  0
   15.6921   17.1295  -13.9404 H   0  0  0  0  0  0  0  0  0  0  0  0
    9.5910   13.5656  -12.4975 N   0  0  0  0  0  0  0  0  0  0  0  0
   10.4842   14.2278  -11.6997 C   0  0  0  0  0  0  0  0  0  0  0  0
   10.3341   14.2358  -10.4833 O   0  0  0  0  0  0  0  0  0  0  0  0
    8.8172   13.1064  -12.0348 H   0  0  0  0  0  0  0  0  0  0  0  0
    9.6736   13.4570  -13.4957 H   0  0  0  0  0  0  0  0  0  0  0  0
   12.4837   13.5919  -16.9843 N   0  0  0  0  0  0  0  0  0  0  0  0
   11.4365   13.8966  -17.9568 C   0  0  0  0  0  0  0  0  0  0  0  0
   10.2927   14.6404  -17.2562 C   0  0  0  0  0  0  0  0  0  0  0  0
    8.9300   14.0949  -17.6456 C   0  0  0  0  0  0  0  0  0  0  0  0
   12.7082   12.2079  -16.5787 C   0  0  0  0  0  0  0  0  0  0  0  0
   11.8349   11.7619  -15.4085 C   0  0  0  0  0  0  0  0  0  0  0  0
   10.7045   10.8683  -15.9102 C   0  0  0  0  0  0  0  0  0  0  0  0
  3  5  1  0  0  0
  4  2  2  0  0  0
  5  6  2  0  0  0
  6  8  1  0  0  0
  7 20  1  0  0  0
  7  1  2  0  0  0
 21 20  1  0  0  0
 21 22  1  0  0  0
 22 23  1  0  0  0
 24 20  1  0  0  0
 24 25  1  0  0  0
 25 26  1  0  0  0
  9  3  1  0  0  0
  9 10  2  0  0  0
 11 12  2  0  0  0
 12 16  1  0  0  0
 13  8  2  0  0  0
 16 15  1  0  0  0
  4  1  1  0  0  0
  5  2  1  0  0  0
  6  7  1  0  0  0
  8  9  1  0  0  0
 10 11  1  0  0  0
 12 13  1  0  0  0
 16 17  2  0  0  0
  3 14  1  0  0  0
 15 18  1  0  0  0
 15 19  1  0  0  0
M  END
> <minimizedAffinity>
-8.54942

$$$$
CHEMBL3715062


 26 28  0  0  0  0  0  0  0  0999 V2000
    9.8286   13.6093  -13.3287 N   0  0  0  0  0  0  0  0  0  0  0  0
   10.9158   14.8798  -11.5870 N   0  0  0  0  0  0  0  0  0  0  0  0
   12.9098   15.9747  -12.3199 N   0  0  0  0  0  0  0  0  0  0  0  0
    9.9627   14.0706  -12.0715 C   0  0  0  0  0  0  0  0  0  0  0  0
   11.8244   15.1721  -12.5274 C   0  0  0  0  0  0  0  0  0  0  0  0
   11.8374   14.7463  -13.8467 C   0  0  0  0  0  0  0  0  0  0  0  0
   10.7366   13.9710  -14.2766 C   0  0  0  0  0  0  0  0  0  0  0  0
   13.0636   15.2323  -14.4111 C   0  0  0  0  0  0  0  0  0  0  0  0
   13.6699   16.0584  -13.4628 C   0  0  0  0  0  0  0  0  0  0  0  0
   14.8415   16.7772  -13.7230 C   0  0  0  0  0  0  0  0  0  0  0  0
   15.4017   16.6601  -15.0017 C   0  0  0  0  0  0  0  0  0  0  0  0
   14.8490   15.8113  -15.9661 C   0  0  0  0  0  0  0  0  0  0  0  0
   13.7177   15.0497  -15.6493 C   0  0  0  0  0  0  0  0  0  0  0  0
   13.1105   16.4275  -11.4414 H   0  0  0  0  0  0  0  0  0  0  0  0
   15.9634   16.9286  -17.8466 N   0  0  0  0  0  0  0  0  0  0  0  0
   15.4750   15.7646  -17.3178 C   0  0  0  0  0  0  0  0  0  0  0  0
   15.5926   14.7121  -17.9347 O   0  0  0  0  0  0  0  0  0  0  0  0
   16.4041   16.8688  -18.7553 H   0  0  0  0  0  0  0  0  0  0  0  0
   15.9644   17.8222  -17.3812 H   0  0  0  0  0  0  0  0  0  0  0  0
   10.5310   13.5548  -15.5847 N   0  0  0  0  0  0  0  0  0  0  0  0
   10.2096   12.1458  -15.8008 C   0  0  0  0  0  0  0  0  0  0  0  0
   11.3779   11.2778  -15.3169 C   0  0  0  0  0  0  0  0  0  0  0  0
   12.6829   11.6362  -16.0059 C   0  0  0  0  0  0  0  0  0  0  0  0
   10.2257   14.5304  -16.6266 C   0  0  0  0  0  0  0  0  0  0  0  0
   10.3243   13.9676  -18.0424 C   0  0  0  0  0  0  0  0  0  0  0  0
   11.7268   14.1943  -18.5989 C   0  0  0  0  0  0  0  0  0  0  0  0
  3  5  1  0  0  0
  4  2  2  0  0  0
  5  6  2  0  0  0
  6  8  1  0  0  0
  7 20  1  0  0  0
  7  1  2  0  0  0
 21 20  1  0  0  0
 21 22  1  0  0  0
 22 23  1  0  0  0
 24 20  1  0  0  0
 24 25  1  0  0  0
 25 26  1  0  0  0
  9  3  1  0  0  0
  9 10  2  0  0  0
 11 12  2  0  0  0
 12 16  1  0  0  0
 13  8  2  0  0  0
 16 15  1  0  0  0
  4  1  1  0  0  0
  5  2  1  0  0  0
  6  7  1  0  0  0
  8  9  1  0  0  0
 10 11  1  0  0  0
 12 13  1  0  0  0
 16 17  2  0  0  0
  3 14  1  0  0  0
 15 18  1  0  0  0
 15 19  1  0  0  0
M  END
> <minimizedAffinity>
-8.47644

$$$$
CHEMBL3715062


 26 28  0  0  0  0  0  0  0  0999 V2000
   12.0338   13.4569  -18.8550 N   0  0  0  0  0  0  0  0  0  0  0  0
   14.0667   14.7338  -19.1128 N   0  0  0  0  0  0  0  0  0  0  0  0
   14.8531   15.6828  -17.0651 N   0  0  0  0  0  0  0  0  0  0  0  0
   13.0451   13.9918  -19.5639 C   0  0  0  0  0  0  0  0  0  0  0  0
   13.9568   14.9563  -17.7960 C   0  0  0  0  0  0  0  0  0  0  0  0
   12.9601   14.5027  -16.9459 C   0  0  0  0  0  0  0  0  0  0  0  0
   11.9812   13.6526  -17.5086 C   0  0  0  0  0  0  0  0  0  0  0  0
   13.2257   15.0957  -15.6668 C   0  0  0  0  0  0  0  0  0  0  0  0
   14.4515   15.7586  -15.7520 C   0  0  0  0  0  0  0  0  0  0  0  0
   15.0604   16.3693  -14.6505 C   0  0  0  0  0  0  0  0  0  0  0  0
   14.4011   16.2841  -13.4173 C   0  0  0  0  0  0  0  0  0  0  0  0
   13.1524   15.6656  -13.2981 C   0  0  0  0  0  0  0  0  0  0  0  0
   12.5364   15.1282  -14.4347 C   0  0  0  0  0  0  0  0  0  0  0  0
   15.6834   16.1018  -17.4549 H   0  0  0  0  0  0  0  0  0  0  0  0
   11.3038   14.9725  -11.8392 N   0  0  0  0  0  0  0  0  0  0  0  0
   12.5262   15.5780  -11.9486 C   0  0  0  0  0  0  0  0  0  0  0  0
   13.0966   15.9971  -10.9479 O   0  0  0  0  0  0  0  0  0  0  0  0
   10.9084   14.9044  -10.9104 H   0  0  0  0  0  0  0  0  0  0  0  0
   10.7969   14.5464  -12.5986 H   0  0  0  0  0  0  0  0  0  0  0  0
   10.9792   13.0204  -16.7854 N   0  0  0  0  0  0  0  0  0  0  0  0
    9.7714   13.7894  -16.4936 C   0  0  0  0  0  0  0  0  0  0  0  0
    8.5366   12.9438  -16.8294 C   0  0  0  0  0  0  0  0  0  0  0  0
    7.5552   13.6885  -17.7172 C   0  0  0  0  0  0  0  0  0  0  0  0
   10.9432   11.5638  -16.6986 C   0  0  0  0  0  0  0  0  0  0  0  0
   11.4952   11.0134  -15.3859 C   0  0  0  0  0  0  0  0  0  0  0  0
   12.9858   10.7199  -15.5274 C   0  0  0  0  0  0  0  0  0  0  0  0
  3  5  1  0  0  0
  4  2  2  0  0  0
  5  6  2  0  0  0
  6  8  1  0  0  0
  7 20  1  0  0  0
  7  1  2  0  0  0
 21 20  1  0  0  0
 21 22  1  0  0  0
 22 23  1  0  0  0
 24 20  1  0  0  0
 24 25  1  0  0  0
 25 26  1  0  0  0
  9  3  1  0  0  0
  9 10  2  0  0  0
 11 12  2  0  0  0
 12 16  1  0  0  0
 13  8  2  0  0  0
 16 15  1  0  0  0
  4  1  1  0  0  0
  5  2  1  0  0  0
  6  7  1  0  0  0
  8  9  1  0  0  0
 10 11  1  0  0  0
 12 13  1  0  0  0
 16 17  2  0  0  0
  3 14  1  0  0  0
 15 18  1  0  0  0
 15 19  1  0  0  0
M  END
> <minimizedAffinity>
-7.97222

$$$$
CHEMBL3715062


 26 28  0  0  0  0  0  0  0  0999 V2000
   10.6013   12.6828  -18.2777 N   0  0  0  0  0  0  0  0  0  0  0  0
    8.8096   12.0491  -16.7883 N   0  0  0  0  0  0  0  0  0  0  0  0
    9.0750   12.9049  -14.5726 N   0  0  0  0  0  0  0  0  0  0  0  0
    9.4535   12.0536  -17.9644 C   0  0  0  0  0  0  0  0  0  0  0  0
    9.4896   12.7402  -15.8634 C   0  0  0  0  0  0  0  0  0  0  0  0
   10.6932   13.4083  -16.0279 C   0  0  0  0  0  0  0  0  0  0  0  0
   11.2392   13.4255  -17.3314 C   0  0  0  0  0  0  0  0  0  0  0  0
   11.0619   13.8927  -14.7287 C   0  0  0  0  0  0  0  0  0  0  0  0
    9.9990   13.6338  -13.8613 C   0  0  0  0  0  0  0  0  0  0  0  0
    9.9859   14.0636  -12.5301 C   0  0  0  0  0  0  0  0  0  0  0  0
   11.0896   14.7975  -12.0764 C   0  0  0  0  0  0  0  0  0  0  0  0
   12.1925   15.0423  -12.9009 C   0  0  0  0  0  0  0  0  0  0  0  0
   12.2056   14.5352  -14.2059 C   0  0  0  0  0  0  0  0  0  0  0  0
    8.2114   12.5303  -14.2106 H   0  0  0  0  0  0  0  0  0  0  0  0
   14.1785   16.4411  -13.2553 N   0  0  0  0  0  0  0  0  0  0  0  0
   13.3154   15.8625  -12.3647 C   0  0  0  0  0  0  0  0  0  0  0  0
   13.4519   16.0555  -11.1620 O   0  0  0  0  0  0  0  0  0  0  0  0
   14.9196   17.0117  -12.8694 H   0  0  0  0  0  0  0  0  0  0  0  0
   14.1013   16.3856  -14.2583 H   0  0  0  0  0  0  0  0  0  0  0  0
   12.3736   14.1356  -17.6995 N   0  0  0  0  0  0  0  0  0  0  0  0
   13.6550   13.6846  -17.1610 C   0  0  0  0  0  0  0  0  0  0  0  0
   14.4614   14.8988  -16.6835 C   0  0  0  0  0  0  0  0  0  0  0  0
   15.6052   15.2341  -17.6245 C   0  0  0  0  0  0  0  0  0  0  0  0
   12.3513   14.9959  -18.8784 C   0  0  0  0  0  0  0  0  0  0  0  0
   13.0064   14.3702  -20.1073 C   0  0  0  0  0  0  0  0  0  0  0  0
   13.7735   15.4325  -20.8891 C   0  0  0  0  0  0  0  0  0  0  0  0
  3  5  1  0  0  0
  4  2  2  0  0  0
  5  6  2  0  0  0
  6  8  1  0  0  0
  7 20  1  0  0  0
  7  1  2  0  0  0
 21 20  1  0  0  0
 21 22  1  0  0  0
 22 23  1  0  0  0
 24 20  1  0  0  0
 24 25  1  0  0  0
 25 26  1  0  0  0
  9  3  1  0  0  0
  9 10  2  0  0  0
 11 12  2  0  0  0
 12 16  1  0  0  0
 13  8  2  0  0  0
 16 15  1  0  0  0
  4  1  1  0  0  0
  5  2  1  0  0  0
  6  7  1  0  0  0
  8  9  1  0  0  0
 10 11  1  0  0  0
 12 13  1  0  0  0
 16 17  2  0  0  0
  3 14  1  0  0  0
 15 18  1  0  0  0
 15 19  1  0  0  0
M  END
> <minimizedAffinity>
-7.57699

$$$$
CHEMBL3715062


 26 28  0  0  0  0  0  0  0  0999 V2000
   14.8149   16.3784  -16.8449 N   0  0  0  0  0  0  0  0  0  0  0  0
   16.0079   17.2448  -14.9328 N   0  0  0  0  0  0  0  0  0  0  0  0
   15.0044   16.6546  -12.8455 N   0  0  0  0  0  0  0  0  0  0  0  0
   15.7970   17.0775  -16.2464 C   0  0  0  0  0  0  0  0  0  0  0  0
   15.0496   16.6487  -14.2106 C   0  0  0  0  0  0  0  0  0  0  0  0
   13.9645   15.9272  -14.6839 C   0  0  0  0  0  0  0  0  0  0  0  0
   13.8884   15.7352  -16.0821 C   0  0  0  0  0  0  0  0  0  0  0  0
   13.1756   15.5915  -13.5335 C   0  0  0  0  0  0  0  0  0  0  0  0
   13.8877   15.9875  -12.3997 C   0  0  0  0  0  0  0  0  0  0  0  0
   13.4480   15.7221  -11.0984 C   0  0  0  0  0  0  0  0  0  0  0  0
   12.2485   15.0131  -10.9528 C   0  0  0  0  0  0  0  0  0  0  0  0
   11.4846   14.6350  -12.0617 C   0  0  0  0  0  0  0  0  0  0  0  0
   11.9162   14.9802  -13.3481 C   0  0  0  0  0  0  0  0  0  0  0  0
   15.6998   17.0979  -12.2650 H   0  0  0  0  0  0  0  0  0  0  0  0
    9.4092   13.6271  -12.9003 N   0  0  0  0  0  0  0  0  0  0  0  0
   10.2384   13.8498  -11.8346 C   0  0  0  0  0  0  0  0  0  0  0  0
    9.9698   13.3756  -10.7368 O   0  0  0  0  0  0  0  0  0  0  0  0
    8.5808   13.0726  -12.7274 H   0  0  0  0  0  0  0  0  0  0  0  0
    9.5863   13.9259  -13.8461 H   0  0  0  0  0  0  0  0  0  0  0  0
   12.9366   14.9495  -16.7173 N   0  0  0  0  0  0  0  0  0  0  0  0
   13.3114   13.5780  -17.0547 C   0  0  0  0  0  0  0  0  0  0  0  0
   13.8113   13.5294  -18.5039 C   0  0  0  0  0  0  0  0  0  0  0  0
   12.7032   13.1801  -19.4817 C   0  0  0  0  0  0  0  0  0  0  0  0
   11.5250   15.3166  -16.6613 C   0  0  0  0  0  0  0  0  0  0  0  0
   10.5776   14.1200  -16.7002 C   0  0  0  0  0  0  0  0  0  0  0  0
    9.4971   14.3423  -17.7543 C   0  0  0  0  0  0  0  0  0  0  0  0
  3  5  1  0  0  0
  4  2  2  0  0  0
  5  6  2  0  0  0
  6  8  1  0  0  0
  7 20  1  0  0  0
  7  1  2  0  0  0
 21 20  1  0  0  0
 21 22  1  0  0  0
 22 23  1  0  0  0
 24 20  1  0  0  0
 24 25  1  0  0  0
 25 26  1  0  0  0
  9  3  1  0  0  0
  9 10  2  0  0  0
 11 12  2  0  0  0
 12 16  1  0  0  0
 13  8  2  0  0  0
 16 15  1  0  0  0
  4  1  1  0  0  0
  5  2  1  0  0  0
  6  7  1  0  0  0
  8  9  1  0  0  0
 10 11  1  0  0  0
 12 13  1  0  0  0
 16 17  2  0  0  0
  3 14  1  0  0  0
 15 18  1  0  0  0
 15 19  1  0  0  0
M  END
> <minimizedAffinity>
-7.54047

$$$$
CHEMBL3715062


 26 28  0  0  0  0  0  0  0  0999 V2000
   12.1628   13.7189  -19.0188 N   0  0  0  0  0  0  0  0  0  0  0  0
   14.2119   14.9892  -18.8873 N   0  0  0  0  0  0  0  0  0  0  0  0
   14.7419   15.7012  -16.6682 N   0  0  0  0  0  0  0  0  0  0  0  0
   13.2531   14.3137  -19.5372 C   0  0  0  0  0  0  0  0  0  0  0  0
   13.9418   15.0697  -17.5773 C   0  0  0  0  0  0  0  0  0  0  0  0
   12.8486   14.5403  -16.9090 C   0  0  0  0  0  0  0  0  0  0  0  0
   11.9459   13.7689  -17.6755 C   0  0  0  0  0  0  0  0  0  0  0  0
   12.9557   14.9884  -15.5503 C   0  0  0  0  0  0  0  0  0  0  0  0
   14.1828   15.6403  -15.4133 C   0  0  0  0  0  0  0  0  0  0  0  0
   14.6523   16.1205  -14.1862 C   0  0  0  0  0  0  0  0  0  0  0  0
   13.8472   15.9116  -13.0589 C   0  0  0  0  0  0  0  0  0  0  0  0
   12.5933   15.3004  -13.1603 C   0  0  0  0  0  0  0  0  0  0  0  0
   12.1209   14.8969  -14.4150 C   0  0  0  0  0  0  0  0  0  0  0  0
   15.6136   16.1489  -16.9064 H   0  0  0  0  0  0  0  0  0  0  0  0
   12.4609   15.1410  -10.7142 N   0  0  0  0  0  0  0  0  0  0  0  0
   11.8067   15.0761  -11.9145 C   0  0  0  0  0  0  0  0  0  0  0  0
   10.5977   14.8774  -11.9459 O   0  0  0  0  0  0  0  0  0  0  0  0
   11.9025   15.0079   -9.8810 H   0  0  0  0  0  0  0  0  0  0  0  0
   13.4369   15.3614  -10.5961 H   0  0  0  0  0  0  0  0  0  0  0  0
   10.8630   13.0757  -17.1526 N   0  0  0  0  0  0  0  0  0  0  0  0
   11.0410   11.6502  -16.8853 C   0  0  0  0  0  0  0  0  0  0  0  0
   11.6316   11.4658  -15.4818 C   0  0  0  0  0  0  0  0  0  0  0  0
   12.9775   10.7633  -15.5134 C   0  0  0  0  0  0  0  0  0  0  0  0
    9.7708   13.7977  -16.5075 C   0  0  0  0  0  0  0  0  0  0  0  0
    8.4247   13.0831  -16.5980 C   0  0  0  0  0  0  0  0  0  0  0  0
    7.8178   13.2839  -17.9834 C   0  0  0  0  0  0  0  0  0  0  0  0
  3  5  1  0  0  0
  4  2  2  0  0  0
  5  6  2  0  0  0
  6  8  1  0  0  0
  7 20  1  0  0  0
  7  1  2  0  0  0
 21 20  1  0  0  0
 21 22  1  0  0  0
 22 23  1  0  0  0
 24 20  1  0  0  0
 24 25  1  0  0  0
 25 26  1  0  0  0
  9  3  1  0  0  0
  9 10  2  0  0  0
 11 12  2  0  0  0
 12 16  1  0  0  0
 13  8  2  0  0  0
 16 15  1  0  0  0
  4  1  1  0  0  0
  5  2  1  0  0  0
  6  7  1  0  0  0
  8  9  1  0  0  0
 10 11  1  0  0  0
 12 13  1  0  0  0
 16 17  2  0  0  0
  3 14  1  0  0  0
 15 18  1  0  0  0
 15 19  1  0  0  0
M  END
> <minimizedAffinity>
-7.50020

$$$$
CHEMBL3715062


 26 28  0  0  0  0  0  0  0  0999 V2000
    8.5869   12.9229  -16.3651 N   0  0  0  0  0  0  0  0  0  0  0  0
    8.3515   13.0219  -18.7661 N   0  0  0  0  0  0  0  0  0  0  0  0
   10.3517   13.6999  -19.8849 N   0  0  0  0  0  0  0  0  0  0  0  0
    7.9022   12.8190  -17.5191 C   0  0  0  0  0  0  0  0  0  0  0  0
    9.6315   13.4180  -18.7591 C   0  0  0  0  0  0  0  0  0  0  0  0
   10.4500   13.6017  -17.6553 C   0  0  0  0  0  0  0  0  0  0  0  0
    9.9028   13.2715  -16.3947 C   0  0  0  0  0  0  0  0  0  0  0  0
   11.6840   14.1343  -18.1573 C   0  0  0  0  0  0  0  0  0  0  0  0
   11.6217   14.1089  -19.5519 C   0  0  0  0  0  0  0  0  0  0  0  0
   12.7010   14.4709  -20.3649 C   0  0  0  0  0  0  0  0  0  0  0  0
   13.8890   14.8554  -19.7296 C   0  0  0  0  0  0  0  0  0  0  0  0
   13.9794   14.9342  -18.3362 C   0  0  0  0  0  0  0  0  0  0  0  0
   12.8579   14.6353  -17.5531 C   0  0  0  0  0  0  0  0  0  0  0  0
    9.9823   13.6189  -20.8198 H   0  0  0  0  0  0  0  0  0  0  0  0
   15.2968   16.3053  -16.7834 N   0  0  0  0  0  0  0  0  0  0  0  0
   15.2854   15.3139  -17.7268 C   0  0  0  0  0  0  0  0  0  0  0  0
   16.3244   14.7353  -18.0235 O   0  0  0  0  0  0  0  0  0  0  0  0
   16.1911   16.5306  -16.3673 H   0  0  0  0  0  0  0  0  0  0  0  0
   14.4822   16.7866  -16.4371 H   0  0  0  0  0  0  0  0  0  0  0  0
   10.6112   13.2882  -15.2012 N   0  0  0  0  0  0  0  0  0  0  0  0
   10.5965   14.5270  -14.4263 C   0  0  0  0  0  0  0  0  0  0  0  0
   11.8593   14.5991  -13.5587 C   0  0  0  0  0  0  0  0  0  0  0  0
   12.8015   15.7022  -14.0074 C   0  0  0  0  0  0  0  0  0  0  0  0
   10.9813   12.0360  -14.5490 C   0  0  0  0  0  0  0  0  0  0  0  0
   11.5241   10.9807  -15.5095 C   0  0  0  0  0  0  0  0  0  0  0  0
   12.9951   11.2534  -15.8094 C   0  0  0  0  0  0  0  0  0  0  0  0
  3  5  1  0  0  0
  4  2  2  0  0  0
  5  6  2  0  0  0
  6  8  1  0  0  0
  7 20  1  0  0  0
  7  1  2  0  0  0
 21 20  1  0  0  0
 21 22  1  0  0  0
 22 23  1  0  0  0
 24 20  1  0  0  0
 24 25  1  0  0  0
 25 26  1  0  0  0
  9  3  1  0  0  0
  9 10  2  0  0  0
 11 12  2  0  0  0
 12 16  1  0  0  0
 13  8  2  0  0  0
 16 15  1  0  0  0
  4  1  1  0  0  0
  5  2  1  0  0  0
  6  7  1  0  0  0
  8  9  1  0  0  0
 10 11  1  0  0  0
 12 13  1  0  0  0
 16 17  2  0  0  0
  3 14  1  0  0  0
 15 18  1  0  0  0
 15 19  1  0  0  0
M  END
> <minimizedAffinity>
-7.25543

$$$$
CHEMBL3715062


 26 28  0  0  0  0  0  0  0  0999 V2000
   11.9224   14.1706  -20.2186 N   0  0  0  0  0  0  0  0  0  0  0  0
   14.0084   15.1253  -19.4655 N   0  0  0  0  0  0  0  0  0  0  0  0
   14.1411   15.3522  -17.0900 N   0  0  0  0  0  0  0  0  0  0  0  0
   13.1439   14.7057  -20.4006 C   0  0  0  0  0  0  0  0  0  0  0  0
   13.4877   15.0020  -18.2371 C   0  0  0  0  0  0  0  0  0  0  0  0
   12.2390   14.5041  -17.8980 C   0  0  0  0  0  0  0  0  0  0  0  0
   11.4441   14.0047  -18.9546 C   0  0  0  0  0  0  0  0  0  0  0  0
   12.1094   14.6824  -16.4804 C   0  0  0  0  0  0  0  0  0  0  0  0
   13.3369   15.1375  -15.9953 C   0  0  0  0  0  0  0  0  0  0  0  0
   13.5902   15.3248  -14.6323 C   0  0  0  0  0  0  0  0  0  0  0  0
   12.5586   15.0201  -13.7348 C   0  0  0  0  0  0  0  0  0  0  0  0
   11.3013   14.6017  -14.1823 C   0  0  0  0  0  0  0  0  0  0  0  0
   11.0577   14.4946  -15.5568 C   0  0  0  0  0  0  0  0  0  0  0  0
   15.0795   15.7209  -17.0715 H   0  0  0  0  0  0  0  0  0  0  0  0
    9.2544   13.4091  -13.5387 N   0  0  0  0  0  0  0  0  0  0  0  0
   10.2625   14.2583  -13.1704 C   0  0  0  0  0  0  0  0  0  0  0  0
   10.3182   14.6855  -12.0230 O   0  0  0  0  0  0  0  0  0  0  0  0
    8.5733   13.1724  -12.8289 H   0  0  0  0  0  0  0  0  0  0  0  0
    9.1696   12.9646  -14.4389 H   0  0  0  0  0  0  0  0  0  0  0  0
   10.2201   13.3720  -18.7867 N   0  0  0  0  0  0  0  0  0  0  0  0
   10.2123   11.9107  -18.7807 C   0  0  0  0  0  0  0  0  0  0  0  0
    9.9948   11.3976  -20.2096 C   0  0  0  0  0  0  0  0  0  0  0  0
    8.5377   11.0723  -20.4870 C   0  0  0  0  0  0  0  0  0  0  0  0
    9.0884   14.0998  -18.2211 C   0  0  0  0  0  0  0  0  0  0  0  0
    8.1507   13.2272  -17.3905 C   0  0  0  0  0  0  0  0  0  0  0  0
    6.7078   13.6883  -17.5736 C   0  0  0  0  0  0  0  0  0  0  0  0
  3  5  1  0  0  0
  4  2  2  0  0  0
  5  6  2  0  0  0
  6  8  1  0  0  0
  7 20  1  0  0  0
  7  1  2  0  0  0
 21 20  1  0  0  0
 21 22  1  0  0  0
 22 23  1  0  0  0
 24 20  1  0  0  0
 24 25  1  0  0  0
 25 26  1  0  0  0
  9  3  1  0  0  0
  9 10  2  0  0  0
 11 12  2  0  0  0
 12 16  1  0  0  0
 13  8  2  0  0  0
 16 15  1  0  0  0
  4  1  1  0  0  0
  5  2  1  0  0  0
  6  7  1  0  0  0
  8  9  1  0  0  0
 10 11  1  0  0  0
 12 13  1  0  0  0
 16 17  2  0  0  0
  3 14  1  0  0  0
 15 18  1  0  0  0
 15 19  1  0  0  0
M  END
> <minimizedAffinity>
-7.13037

$$$$
CHEMBL3717493


 28 31  0  0  0  0  0  0  0  0999 V2000
   13.4494   14.4873  -16.8242 C   0  0  0  0  0  0  0  0  0  0  0  0
   15.2535   15.6727  -17.7454 C   0  0  0  0  0  0  0  0  0  0  0  0
   14.8088   15.9999  -15.5954 C   0  0  0  0  0  0  0  0  0  0  0  0
   13.7182   15.1481  -15.6047 C   0  0  0  0  0  0  0  0  0  0  0  0
   13.1337   15.2317  -14.2951 C   0  0  0  0  0  0  0  0  0  0  0  0
   13.9431   16.0648  -13.5190 C   0  0  0  0  0  0  0  0  0  0  0  0
   13.6843   16.3330  -12.1694 C   0  0  0  0  0  0  0  0  0  0  0  0
   12.5628   15.7281  -11.5830 C   0  0  0  0  0  0  0  0  0  0  0  0
   11.7109   14.9091  -12.3290 C   0  0  0  0  0  0  0  0  0  0  0  0
   11.9835   14.6854  -13.6882 C   0  0  0  0  0  0  0  0  0  0  0  0
   14.2331   14.8142  -17.8897 N   0  0  0  0  0  0  0  0  0  0  0  0
   15.6169   16.2939  -16.6200 N   0  0  0  0  0  0  0  0  0  0  0  0
   14.9477   16.5191  -14.3403 N   0  0  0  0  0  0  0  0  0  0  0  0
   15.9974   15.9356  -18.8607 N   0  0  0  0  0  0  0  0  0  0  0  0
   15.6809   17.1607  -14.0803 H   0  0  0  0  0  0  0  0  0  0  0  0
   16.7685   16.5725  -18.7776 H   0  0  0  0  0  0  0  0  0  0  0  0
   15.7387   15.4679  -19.7110 H   0  0  0  0  0  0  0  0  0  0  0  0
   10.1542   12.3401  -15.7637 C   0  0  0  0  0  0  0  0  0  0  0  0
   11.5721   11.9977  -15.3114 C   0  0  0  0  0  0  0  0  0  0  0  0
   12.5811   12.2289  -16.4342 C   0  0  0  0  0  0  0  0  0  0  0  0
   11.1026   13.9966  -17.4051 C   0  0  0  0  0  0  0  0  0  0  0  0
   10.0966   13.7754  -16.2771 C   0  0  0  0  0  0  0  0  0  0  0  0
   12.4360   13.5641  -17.0003 N   0  0  0  0  0  0  0  0  0  0  0  0
   10.5163   14.2182  -11.7610 C   0  0  0  0  0  0  0  0  0  0  0  0
    9.5975   13.6775  -12.6139 N   0  0  0  0  0  0  0  0  0  0  0  0
   10.3394   14.1363  -10.5496 O   0  0  0  0  0  0  0  0  0  0  0  0
    8.7984   13.2270  -12.1863 H   0  0  0  0  0  0  0  0  0  0  0  0
    9.6561   13.6836  -13.6185 H   0  0  0  0  0  0  0  0  0  0  0  0
 18 19  1  0  0  0
 19 20  1  0  0  0
 20 23  1  0  0  0
 21 23  1  0  0  0
 21 22  1  0  0  0
 22 18  1  0  0  0
  2 11  2  0  0  0
  2 14  1  0  0  0
  3 12  2  0  0  0
  4  5  1  0  0  0
  4  1  2  0  0  0
  6 13  1  0  0  0
  6  7  2  0  0  0
  8  9  2  0  0  0
  9 24  1  0  0  0
 10  5  2  0  0  0
 24 25  1  0  0  0
 23  1  1  0  0  0
 13  3  1  0  0  0
  1 11  1  0  0  0
  2 12  1  0  0  0
  3  4  1  0  0  0
  5  6  1  0  0  0
  7  8  1  0  0  0
  9 10  1  0  0  0
 24 26  2  0  0  0
 13 15  1  0  0  0
 25 27  1  0  0  0
 25 28  1  0  0  0
 14 16  1  0  0  0
 14 17  1  0  0  0
M  END
> <minimizedAffinity>
-9.95787

$$$$
CHEMBL3717493


 28 31  0  0  0  0  0  0  0  0999 V2000
   11.6896   14.2343  -14.1641 C   0  0  0  0  0  0  0  0  0  0  0  0
   11.1078   14.4572  -11.9013 C   0  0  0  0  0  0  0  0  0  0  0  0
   12.8446   15.6325  -12.6289 C   0  0  0  0  0  0  0  0  0  0  0  0
   12.7581   15.1239  -13.9130 C   0  0  0  0  0  0  0  0  0  0  0  0
   13.8772   15.6640  -14.6337 C   0  0  0  0  0  0  0  0  0  0  0  0
   14.5482   16.5448  -13.7822 C   0  0  0  0  0  0  0  0  0  0  0  0
   15.6707   17.2805  -14.1812 C   0  0  0  0  0  0  0  0  0  0  0  0
   16.1271   17.1196  -15.4978 C   0  0  0  0  0  0  0  0  0  0  0  0
   15.5025   16.2291  -16.3752 C   0  0  0  0  0  0  0  0  0  0  0  0
   14.3973   15.4847  -15.9327 C   0  0  0  0  0  0  0  0  0  0  0  0
   10.9027   13.8990  -13.1035 N   0  0  0  0  0  0  0  0  0  0  0  0
   12.0508   15.3505  -11.5898 N   0  0  0  0  0  0  0  0  0  0  0  0
   13.8991   16.4977  -12.5712 N   0  0  0  0  0  0  0  0  0  0  0  0
   10.2656   14.0758  -10.8954 N   0  0  0  0  0  0  0  0  0  0  0  0
   14.1592   17.0051  -11.7394 H   0  0  0  0  0  0  0  0  0  0  0  0
   10.3968   14.4819   -9.9871 H   0  0  0  0  0  0  0  0  0  0  0  0
    9.5473   13.4108  -11.1197 H   0  0  0  0  0  0  0  0  0  0  0  0
    9.7689   11.7854  -16.7921 C   0  0  0  0  0  0  0  0  0  0  0  0
   10.8749   11.3173  -15.8488 C   0  0  0  0  0  0  0  0  0  0  0  0
   11.9769   12.3673  -15.7257 C   0  0  0  0  0  0  0  0  0  0  0  0
   10.3171   14.1731  -16.2130 C   0  0  0  0  0  0  0  0  0  0  0  0
    9.2105   13.1262  -16.3260 C   0  0  0  0  0  0  0  0  0  0  0  0
   11.4196   13.6736  -15.3983 N   0  0  0  0  0  0  0  0  0  0  0  0
   15.9233   16.0284  -17.7929 C   0  0  0  0  0  0  0  0  0  0  0  0
   15.8879   17.0906  -18.6498 N   0  0  0  0  0  0  0  0  0  0  0  0
   16.2883   14.9313  -18.2036 O   0  0  0  0  0  0  0  0  0  0  0  0
   16.1724   16.9078  -19.6037 H   0  0  0  0  0  0  0  0  0  0  0  0
   15.6142   18.0286  -18.4090 H   0  0  0  0  0  0  0  0  0  0  0  0
 18 19  1  0  0  0
 19 20  1  0  0  0
 20 23  1  0  0  0
 21 23  1  0  0  0
 21 22  1  0  0  0
 22 18  1  0  0  0
  2 11  2  0  0  0
  2 14  1  0  0  0
  3 12  2  0  0  0
  4  5  1  0  0  0
  4  1  2  0  0  0
  6 13  1  0  0  0
  6  7  2  0  0  0
  8  9  2  0  0  0
  9 24  1  0  0  0
 10  5  2  0  0  0
 24 25  1  0  0  0
 23  1  1  0  0  0
 13  3  1  0  0  0
  1 11  1  0  0  0
  2 12  1  0  0  0
  3  4  1  0  0  0
  5  6  1  0  0  0
  7  8  1  0  0  0
  9 10  1  0  0  0
 24 26  2  0  0  0
 13 15  1  0  0  0
 25 27  1  0  0  0
 25 28  1  0  0  0
 14 16  1  0  0  0
 14 17  1  0  0  0
M  END
> <minimizedAffinity>
-9.49942

$$$$
CHEMBL3717493


 28 31  0  0  0  0  0  0  0  0999 V2000
   10.3057   14.1706  -15.3228 C   0  0  0  0  0  0  0  0  0  0  0  0
    8.8453   13.2927  -13.7089 C   0  0  0  0  0  0  0  0  0  0  0  0
   10.6313   14.3908  -12.9795 C   0  0  0  0  0  0  0  0  0  0  0  0
   11.1097   14.6301  -14.2558 C   0  0  0  0  0  0  0  0  0  0  0  0
   12.3789   15.2826  -14.0917 C   0  0  0  0  0  0  0  0  0  0  0  0
   12.5790   15.4891  -12.7247 C   0  0  0  0  0  0  0  0  0  0  0  0
   13.7063   16.1423  -12.2119 C   0  0  0  0  0  0  0  0  0  0  0  0
   14.6660   16.6084  -13.1226 C   0  0  0  0  0  0  0  0  0  0  0  0
   14.5194   16.3999  -14.4966 C   0  0  0  0  0  0  0  0  0  0  0  0
   13.3908   15.7146  -14.9745 C   0  0  0  0  0  0  0  0  0  0  0  0
    9.1865   13.4665  -14.9944 N   0  0  0  0  0  0  0  0  0  0  0  0
    9.5103   13.7437  -12.6417 N   0  0  0  0  0  0  0  0  0  0  0  0
   11.5024   14.9306  -12.0774 N   0  0  0  0  0  0  0  0  0  0  0  0
    7.7013   12.5860  -13.4673 N   0  0  0  0  0  0  0  0  0  0  0  0
   11.3647   14.8947  -11.0791 H   0  0  0  0  0  0  0  0  0  0  0  0
    7.4231   12.4452  -12.5134 H   0  0  0  0  0  0  0  0  0  0  0  0
    7.1884   12.2489  -14.2621 H   0  0  0  0  0  0  0  0  0  0  0  0
   10.6402   13.1318  -19.2474 C   0  0  0  0  0  0  0  0  0  0  0  0
   11.6633   12.7526  -18.1789 C   0  0  0  0  0  0  0  0  0  0  0  0
   11.8737   13.8936  -17.1860 C   0  0  0  0  0  0  0  0  0  0  0  0
    9.5440   14.6977  -17.6092 C   0  0  0  0  0  0  0  0  0  0  0  0
    9.3267   13.5510  -18.5947 C   0  0  0  0  0  0  0  0  0  0  0  0
   10.6008   14.3687  -16.6586 N   0  0  0  0  0  0  0  0  0  0  0  0
   15.4904   16.8896  -15.5186 C   0  0  0  0  0  0  0  0  0  0  0  0
   15.3381   16.4965  -16.8172 N   0  0  0  0  0  0  0  0  0  0  0  0
   16.4237   17.6258  -15.2146 O   0  0  0  0  0  0  0  0  0  0  0  0
   16.0241   16.8442  -17.4750 H   0  0  0  0  0  0  0  0  0  0  0  0
   14.6033   15.9050  -17.1678 H   0  0  0  0  0  0  0  0  0  0  0  0
 18 19  1  0  0  0
 19 20  1  0  0  0
 20 23  1  0  0  0
 21 23  1  0  0  0
 21 22  1  0  0  0
 22 18  1  0  0  0
  2 11  2  0  0  0
  2 14  1  0  0  0
  3 12  2  0  0  0
  4  5  1  0  0  0
  4  1  2  0  0  0
  6 13  1  0  0  0
  6  7  2  0  0  0
  8  9  2  0  0  0
  9 24  1  0  0  0
 10  5  2  0  0  0
 24 25  1  0  0  0
 23  1  1  0  0  0
 13  3  1  0  0  0
  1 11  1  0  0  0
  2 12  1  0  0  0
  3  4  1  0  0  0
  5  6  1  0  0  0
  7  8  1  0  0  0
  9 10  1  0  0  0
 24 26  2  0  0  0
 13 15  1  0  0  0
 25 27  1  0  0  0
 25 28  1  0  0  0
 14 16  1  0  0  0
 14 17  1  0  0  0
M  END
> <minimizedAffinity>
-9.39579

$$$$
CHEMBL3717493


 28 31  0  0  0  0  0  0  0  0999 V2000
   13.8043   15.4226  -15.4999 C   0  0  0  0  0  0  0  0  0  0  0  0
   15.3730   16.8291  -14.4659 C   0  0  0  0  0  0  0  0  0  0  0  0
   13.6897   16.0895  -13.2222 C   0  0  0  0  0  0  0  0  0  0  0  0
   13.1096   15.3961  -14.2700 C   0  0  0  0  0  0  0  0  0  0  0  0
   11.8789   14.8577  -13.7610 C   0  0  0  0  0  0  0  0  0  0  0  0
   11.8042   15.1743  -12.4025 C   0  0  0  0  0  0  0  0  0  0  0  0
   10.7450   14.7640  -11.5838 C   0  0  0  0  0  0  0  0  0  0  0  0
    9.7240   13.9982  -12.1656 C   0  0  0  0  0  0  0  0  0  0  0  0
    9.7447   13.6812  -13.5265 C   0  0  0  0  0  0  0  0  0  0  0  0
   10.8072   14.1343  -14.3249 C   0  0  0  0  0  0  0  0  0  0  0  0
   14.9269   16.1925  -15.5590 N   0  0  0  0  0  0  0  0  0  0  0  0
   14.8165   16.8098  -13.2518 N   0  0  0  0  0  0  0  0  0  0  0  0
   12.9162   15.9276  -12.1090 N   0  0  0  0  0  0  0  0  0  0  0  0
   16.5127   17.5690  -14.6085 N   0  0  0  0  0  0  0  0  0  0  0  0
   13.1388   16.3307  -11.2118 H   0  0  0  0  0  0  0  0  0  0  0  0
   16.8683   18.0523  -13.8041 H   0  0  0  0  0  0  0  0  0  0  0  0
   16.9447   17.5844  -15.5150 H   0  0  0  0  0  0  0  0  0  0  0  0
   11.4519   12.9250  -17.6957 C   0  0  0  0  0  0  0  0  0  0  0  0
   12.5378   12.4429  -16.7362 C   0  0  0  0  0  0  0  0  0  0  0  0
   13.7692   13.3440  -16.7979 C   0  0  0  0  0  0  0  0  0  0  0  0
   12.3289   15.2740  -17.4714 C   0  0  0  0  0  0  0  0  0  0  0  0
   11.0938   14.3779  -17.3998 C   0  0  0  0  0  0  0  0  0  0  0  0
   13.4004   14.7445  -16.6347 N   0  0  0  0  0  0  0  0  0  0  0  0
    8.7034   12.8523  -14.2015 C   0  0  0  0  0  0  0  0  0  0  0  0
    7.5194   12.6270  -13.5601 N   0  0  0  0  0  0  0  0  0  0  0  0
    8.8936   12.3632  -15.3106 O   0  0  0  0  0  0  0  0  0  0  0  0
    6.8457   12.0520  -14.0499 H   0  0  0  0  0  0  0  0  0  0  0  0
    7.2642   12.9899  -12.6569 H   0  0  0  0  0  0  0  0  0  0  0  0
 18 19  1  0  0  0
 19 20  1  0  0  0
 20 23  1  0  0  0
 21 23  1  0  0  0
 21 22  1  0  0  0
 22 18  1  0  0  0
  2 11  2  0  0  0
  2 14  1  0  0  0
  3 12  2  0  0  0
  4  5  1  0  0  0
  4  1  2  0  0  0
  6 13  1  0  0  0
  6  7  2  0  0  0
  8  9  2  0  0  0
  9 24  1  0  0  0
 10  5  2  0  0  0
 24 25  1  0  0  0
 23  1  1  0  0  0
 13  3  1  0  0  0
  1 11  1  0  0  0
  2 12  1  0  0  0
  3  4  1  0  0  0
  5  6  1  0  0  0
  7  8  1  0  0  0
  9 10  1  0  0  0
 24 26  2  0  0  0
 13 15  1  0  0  0
 25 27  1  0  0  0
 25 28  1  0  0  0
 14 16  1  0  0  0
 14 17  1  0  0  0
M  END
> <minimizedAffinity>
-9.19869

$$$$
CHEMBL3717493


 28 31  0  0  0  0  0  0  0  0999 V2000
   12.2788   13.6187  -17.8463 C   0  0  0  0  0  0  0  0  0  0  0  0
   13.5133   14.0792  -19.7886 C   0  0  0  0  0  0  0  0  0  0  0  0
   14.1976   15.0190  -17.8976 C   0  0  0  0  0  0  0  0  0  0  0  0
   13.1646   14.4748  -17.1548 C   0  0  0  0  0  0  0  0  0  0  0  0
   13.2979   15.0129  -15.8295 C   0  0  0  0  0  0  0  0  0  0  0  0
   14.4556   15.7941  -15.8006 C   0  0  0  0  0  0  0  0  0  0  0  0
   14.9088   16.4383  -14.6430 C   0  0  0  0  0  0  0  0  0  0  0  0
   14.1603   16.2794  -13.4673 C   0  0  0  0  0  0  0  0  0  0  0  0
   12.9815   15.5290  -13.4573 C   0  0  0  0  0  0  0  0  0  0  0  0
   12.5399   14.9210  -14.6434 C   0  0  0  0  0  0  0  0  0  0  0  0
   12.4753   13.4789  -19.1873 N   0  0  0  0  0  0  0  0  0  0  0  0
   14.4322   14.8526  -19.2040 N   0  0  0  0  0  0  0  0  0  0  0  0
   14.9745   15.7816  -17.0736 N   0  0  0  0  0  0  0  0  0  0  0  0
   13.6451   13.8765  -21.1332 N   0  0  0  0  0  0  0  0  0  0  0  0
   15.7983   16.2744  -17.3825 H   0  0  0  0  0  0  0  0  0  0  0  0
   14.4158   14.3126  -21.6055 H   0  0  0  0  0  0  0  0  0  0  0  0
   12.9647   13.2900  -21.5822 H   0  0  0  0  0  0  0  0  0  0  0  0
    9.7339   12.6310  -14.8228 C   0  0  0  0  0  0  0  0  0  0  0  0
   11.1517   12.0789  -14.9533 C   0  0  0  0  0  0  0  0  0  0  0  0
   11.5001   11.7903  -16.4119 C   0  0  0  0  0  0  0  0  0  0  0  0
    9.9128   13.5764  -17.1491 C   0  0  0  0  0  0  0  0  0  0  0  0
    9.5704   13.8748  -15.6906 C   0  0  0  0  0  0  0  0  0  0  0  0
   11.2255   12.9481  -17.2534 N   0  0  0  0  0  0  0  0  0  0  0  0
   12.1525   15.3021  -12.2373 C   0  0  0  0  0  0  0  0  0  0  0  0
   12.7454   15.3851  -11.0102 N   0  0  0  0  0  0  0  0  0  0  0  0
   10.9578   15.0335  -12.3153 O   0  0  0  0  0  0  0  0  0  0  0  0
   12.1486   15.2148  -10.2107 H   0  0  0  0  0  0  0  0  0  0  0  0
   13.7119   15.6080  -10.8406 H   0  0  0  0  0  0  0  0  0  0  0  0
 18 19  1  0  0  0
 19 20  1  0  0  0
 20 23  1  0  0  0
 21 23  1  0  0  0
 21 22  1  0  0  0
 22 18  1  0  0  0
  2 11  2  0  0  0
  2 14  1  0  0  0
  3 12  2  0  0  0
  4  5  1  0  0  0
  4  1  2  0  0  0
  6 13  1  0  0  0
  6  7  2  0  0  0
  8  9  2  0  0  0
  9 24  1  0  0  0
 10  5  2  0  0  0
 24 25  1  0  0  0
 23  1  1  0  0  0
 13  3  1  0  0  0
  1 11  1  0  0  0
  2 12  1  0  0  0
  3  4  1  0  0  0
  5  6  1  0  0  0
  7  8  1  0  0  0
  9 10  1  0  0  0
 24 26  2  0  0  0
 13 15  1  0  0  0
 25 27  1  0  0  0
 25 28  1  0  0  0
 14 16  1  0  0  0
 14 17  1  0  0  0
M  END
> <minimizedAffinity>
-9.03002

$$$$
CHEMBL3717493


 28 31  0  0  0  0  0  0  0  0999 V2000
   12.9559   14.6474  -16.7933 C   0  0  0  0  0  0  0  0  0  0  0  0
   14.7730   15.6822  -17.8592 C   0  0  0  0  0  0  0  0  0  0  0  0
   14.6090   15.9224  -15.6585 C   0  0  0  0  0  0  0  0  0  0  0  0
   13.4324   15.1978  -15.5825 C   0  0  0  0  0  0  0  0  0  0  0  0
   13.0096   15.2638  -14.2112 C   0  0  0  0  0  0  0  0  0  0  0  0
   13.9908   15.9532  -13.4948 C   0  0  0  0  0  0  0  0  0  0  0  0
   13.9153   16.1641  -12.1127 C   0  0  0  0  0  0  0  0  0  0  0  0
   12.8026   15.6509  -11.4300 C   0  0  0  0  0  0  0  0  0  0  0  0
   11.7843   14.9783  -12.1109 C   0  0  0  0  0  0  0  0  0  0  0  0
   11.8776   14.8106  -13.5019 C   0  0  0  0  0  0  0  0  0  0  0  0
   13.6500   14.9516  -17.9256 N   0  0  0  0  0  0  0  0  0  0  0  0
   15.3279   16.1888  -16.7547 N   0  0  0  0  0  0  0  0  0  0  0  0
   14.9447   16.3444  -14.4043 N   0  0  0  0  0  0  0  0  0  0  0  0
   15.4148   15.9303  -19.0394 N   0  0  0  0  0  0  0  0  0  0  0  0
   15.7717   16.8842  -14.2003 H   0  0  0  0  0  0  0  0  0  0  0  0
   16.2592   16.4723  -19.0155 H   0  0  0  0  0  0  0  0  0  0  0  0
   15.0114   15.5476  -19.8756 H   0  0  0  0  0  0  0  0  0  0  0  0
    9.5799   13.1970  -18.5518 C   0  0  0  0  0  0  0  0  0  0  0  0
    9.6421   14.5251  -17.8003 C   0  0  0  0  0  0  0  0  0  0  0  0
   10.5270   14.4173  -16.5604 C   0  0  0  0  0  0  0  0  0  0  0  0
   11.8629   12.6149  -17.6649 C   0  0  0  0  0  0  0  0  0  0  0  0
   10.9863   12.7279  -18.9108 C   0  0  0  0  0  0  0  0  0  0  0  0
   11.8288   13.8538  -16.8951 N   0  0  0  0  0  0  0  0  0  0  0  0
   10.5874   14.3890  -11.4421 C   0  0  0  0  0  0  0  0  0  0  0  0
   10.6105   14.2024  -10.0899 N   0  0  0  0  0  0  0  0  0  0  0  0
    9.5929   14.0609  -12.0815 O   0  0  0  0  0  0  0  0  0  0  0  0
    9.7818   13.7913   -9.6791 H   0  0  0  0  0  0  0  0  0  0  0  0
   11.3711   14.4462   -9.4778 H   0  0  0  0  0  0  0  0  0  0  0  0
 18 19  1  0  0  0
 19 20  1  0  0  0
 20 23  1  0  0  0
 21 23  1  0  0  0
 21 22  1  0  0  0
 22 18  1  0  0  0
  2 11  2  0  0  0
  2 14  1  0  0  0
  3 12  2  0  0  0
  4  5  1  0  0  0
  4  1  2  0  0  0
  6 13  1  0  0  0
  6  7  2  0  0  0
  8  9  2  0  0  0
  9 24  1  0  0  0
 10  5  2  0  0  0
 24 25  1  0  0  0
 23  1  1  0  0  0
 13  3  1  0  0  0
  1 11  1  0  0  0
  2 12  1  0  0  0
  3  4  1  0  0  0
  5  6  1  0  0  0
  7  8  1  0  0  0
  9 10  1  0  0  0
 24 26  2  0  0  0
 13 15  1  0  0  0
 25 27  1  0  0  0
 25 28  1  0  0  0
 14 16  1  0  0  0
 14 17  1  0  0  0
M  END
> <minimizedAffinity>
-8.89079

$$$$
CHEMBL3717493


 28 31  0  0  0  0  0  0  0  0999 V2000
   11.1016   13.8612  -13.7416 C   0  0  0  0  0  0  0  0  0  0  0  0
   10.9446   14.3958  -11.4617 C   0  0  0  0  0  0  0  0  0  0  0  0
   12.5594   15.3727  -12.6301 C   0  0  0  0  0  0  0  0  0  0  0  0
   12.2263   14.7141  -13.8007 C   0  0  0  0  0  0  0  0  0  0  0  0
   13.2143   15.0970  -14.7705 C   0  0  0  0  0  0  0  0  0  0  0  0
   14.0563   16.0381  -14.1733 C   0  0  0  0  0  0  0  0  0  0  0  0
   15.1120   16.6547  -14.8558 C   0  0  0  0  0  0  0  0  0  0  0  0
   15.3182   16.3061  -16.1987 C   0  0  0  0  0  0  0  0  0  0  0  0
   14.5169   15.3497  -16.8281 C   0  0  0  0  0  0  0  0  0  0  0  0
   13.4857   14.7290  -16.1050 C   0  0  0  0  0  0  0  0  0  0  0  0
   10.5080   13.7047  -12.5252 N   0  0  0  0  0  0  0  0  0  0  0  0
   11.9570   15.2669  -11.4404 N   0  0  0  0  0  0  0  0  0  0  0  0
   13.6348   16.1782  -12.8722 N   0  0  0  0  0  0  0  0  0  0  0  0
   10.2853   14.1900  -10.2829 N   0  0  0  0  0  0  0  0  0  0  0  0
   14.0570   16.7698  -12.1731 H   0  0  0  0  0  0  0  0  0  0  0  0
   10.5913   14.6979   -9.4732 H   0  0  0  0  0  0  0  0  0  0  0  0
    9.5170   13.5434  -10.2885 H   0  0  0  0  0  0  0  0  0  0  0  0
   10.9954   12.5605  -17.6004 C   0  0  0  0  0  0  0  0  0  0  0  0
   10.5238   13.9439  -17.1578 C   0  0  0  0  0  0  0  0  0  0  0  0
    9.7970   13.8768  -15.8164 C   0  0  0  0  0  0  0  0  0  0  0  0
   11.1369   11.8617  -15.1860 C   0  0  0  0  0  0  0  0  0  0  0  0
   11.8734   11.9327  -16.5224 C   0  0  0  0  0  0  0  0  0  0  0  0
   10.5953   13.1673  -14.8246 N   0  0  0  0  0  0  0  0  0  0  0  0
   14.6686   14.9511  -18.2582 C   0  0  0  0  0  0  0  0  0  0  0  0
   14.2294   13.7197  -18.6515 N   0  0  0  0  0  0  0  0  0  0  0  0
   15.1869   15.6999  -19.0805 O   0  0  0  0  0  0  0  0  0  0  0  0
   14.3605   13.4869  -19.6277 H   0  0  0  0  0  0  0  0  0  0  0  0
   13.7840   13.0397  -18.0583 H   0  0  0  0  0  0  0  0  0  0  0  0
 18 19  1  0  0  0
 19 20  1  0  0  0
 20 23  1  0  0  0
 21 23  1  0  0  0
 21 22  1  0  0  0
 22 18  1  0  0  0
  2 11  2  0  0  0
  2 14  1  0  0  0
  3 12  2  0  0  0
  4  5  1  0  0  0
  4  1  2  0  0  0
  6 13  1  0  0  0
  6  7  2  0  0  0
  8  9  2  0  0  0
  9 24  1  0  0  0
 10  5  2  0  0  0
 24 25  1  0  0  0
 23  1  1  0  0  0
 13  3  1  0  0  0
  1 11  1  0  0  0
  2 12  1  0  0  0
  3  4  1  0  0  0
  5  6  1  0  0  0
  7  8  1  0  0  0
  9 10  1  0  0  0
 24 26  2  0  0  0
 13 15  1  0  0  0
 25 27  1  0  0  0
 25 28  1  0  0  0
 14 16  1  0  0  0
 14 17  1  0  0  0
M  END
> <minimizedAffinity>
-8.84119

$$$$
CHEMBL3717493


 28 31  0  0  0  0  0  0  0  0999 V2000
   11.6016   14.1168  -16.2445 C   0  0  0  0  0  0  0  0  0  0  0  0
    9.9869   13.0082  -14.9514 C   0  0  0  0  0  0  0  0  0  0  0  0
   11.4389   14.3019  -13.8812 C   0  0  0  0  0  0  0  0  0  0  0  0
   12.1178   14.6411  -15.0384 C   0  0  0  0  0  0  0  0  0  0  0  0
   13.2347   15.4451  -14.6262 C   0  0  0  0  0  0  0  0  0  0  0  0
   13.1394   15.6318  -13.2451 C   0  0  0  0  0  0  0  0  0  0  0  0
   14.0511   16.4071  -12.5185 C   0  0  0  0  0  0  0  0  0  0  0  0
   15.0980   17.0210  -13.2219 C   0  0  0  0  0  0  0  0  0  0  0  0
   15.2469   16.8394  -14.5995 C   0  0  0  0  0  0  0  0  0  0  0  0
   14.3315   16.0309  -15.2923 C   0  0  0  0  0  0  0  0  0  0  0  0
   10.5428   13.2651  -16.1448 N   0  0  0  0  0  0  0  0  0  0  0  0
   10.3690   13.5063  -13.7724 N   0  0  0  0  0  0  0  0  0  0  0  0
   12.0416   14.9197  -12.8234 N   0  0  0  0  0  0  0  0  0  0  0  0
    8.9210   12.1537  -14.9417 N   0  0  0  0  0  0  0  0  0  0  0  0
   11.7206   14.8347  -11.8712 H   0  0  0  0  0  0  0  0  0  0  0  0
    8.4857   11.9480  -14.0612 H   0  0  0  0  0  0  0  0  0  0  0  0
    8.6193   11.7792  -15.8234 H   0  0  0  0  0  0  0  0  0  0  0  0
   12.4769   13.3674  -20.1516 C   0  0  0  0  0  0  0  0  0  0  0  0
   13.2860   12.8159  -18.9797 C   0  0  0  0  0  0  0  0  0  0  0  0
   13.4206   13.8515  -17.8654 C   0  0  0  0  0  0  0  0  0  0  0  0
   11.2544   14.8889  -18.5616 C   0  0  0  0  0  0  0  0  0  0  0  0
   11.1114   13.8477  -19.6701 C   0  0  0  0  0  0  0  0  0  0  0  0
   12.1191   14.3935  -17.4960 N   0  0  0  0  0  0  0  0  0  0  0  0
   16.3231   17.4817  -15.4097 C   0  0  0  0  0  0  0  0  0  0  0  0
   17.4605   17.9029  -14.7829 N   0  0  0  0  0  0  0  0  0  0  0  0
   16.2019   17.6472  -16.6194 O   0  0  0  0  0  0  0  0  0  0  0  0
   18.1598   18.3414  -15.3685 H   0  0  0  0  0  0  0  0  0  0  0  0
   17.6589   17.8048  -13.8012 H   0  0  0  0  0  0  0  0  0  0  0  0
 18 19  1  0  0  0
 19 20  1  0  0  0
 20 23  1  0  0  0
 21 23  1  0  0  0
 21 22  1  0  0  0
 22 18  1  0  0  0
  2 11  2  0  0  0
  2 14  1  0  0  0
  3 12  2  0  0  0
  4  5  1  0  0  0
  4  1  2  0  0  0
  6 13  1  0  0  0
  6  7  2  0  0  0
  8  9  2  0  0  0
  9 24  1  0  0  0
 10  5  2  0  0  0
 24 25  1  0  0  0
 23  1  1  0  0  0
 13  3  1  0  0  0
  1 11  1  0  0  0
  2 12  1  0  0  0
  3  4  1  0  0  0
  5  6  1  0  0  0
  7  8  1  0  0  0
  9 10  1  0  0  0
 24 26  2  0  0  0
 13 15  1  0  0  0
 25 27  1  0  0  0
 25 28  1  0  0  0
 14 16  1  0  0  0
 14 17  1  0  0  0
M  END
> <minimizedAffinity>
-8.29451

$$$$
CHEMBL3717493


 28 31  0  0  0  0  0  0  0  0999 V2000
   11.8579   13.6695  -18.2732 C   0  0  0  0  0  0  0  0  0  0  0  0
   13.8052   14.7582  -19.0022 C   0  0  0  0  0  0  0  0  0  0  0  0
   12.5947   13.6989  -20.5320 C   0  0  0  0  0  0  0  0  0  0  0  0
   11.6673   13.2492  -19.6085 C   0  0  0  0  0  0  0  0  0  0  0  0
   10.7567   12.4071  -20.3333 C   0  0  0  0  0  0  0  0  0  0  0  0
   11.1184   12.4487  -21.6819 C   0  0  0  0  0  0  0  0  0  0  0  0
   10.4105   11.7680  -22.6798 C   0  0  0  0  0  0  0  0  0  0  0  0
    9.2885   11.0194  -22.2945 C   0  0  0  0  0  0  0  0  0  0  0  0
    8.9068   10.9282  -20.9533 C   0  0  0  0  0  0  0  0  0  0  0  0
    9.6571   11.5995  -19.9746 C   0  0  0  0  0  0  0  0  0  0  0  0
   12.9759   14.4024  -18.0098 N   0  0  0  0  0  0  0  0  0  0  0  0
   13.6702   14.4589  -20.2970 N   0  0  0  0  0  0  0  0  0  0  0  0
   12.2416   13.2370  -21.7672 N   0  0  0  0  0  0  0  0  0  0  0  0
   14.8956   15.5038  -18.6537 N   0  0  0  0  0  0  0  0  0  0  0  0
   12.7592   13.4417  -22.6081 H   0  0  0  0  0  0  0  0  0  0  0  0
   15.5295   15.7852  -19.3790 H   0  0  0  0  0  0  0  0  0  0  0  0
   15.0033   15.7420  -17.6840 H   0  0  0  0  0  0  0  0  0  0  0  0
   10.7729   13.1750  -14.3782 C   0  0  0  0  0  0  0  0  0  0  0  0
   11.5821   12.1505  -15.1704 C   0  0  0  0  0  0  0  0  0  0  0  0
   11.0824   12.0454  -16.6096 C   0  0  0  0  0  0  0  0  0  0  0  0
   10.2974   14.4177  -16.5152 C   0  0  0  0  0  0  0  0  0  0  0  0
   10.8061   14.5294  -15.0792 C   0  0  0  0  0  0  0  0  0  0  0  0
   11.0025   13.3607  -17.2323 N   0  0  0  0  0  0  0  0  0  0  0  0
    7.7123   10.1688  -20.4802 C   0  0  0  0  0  0  0  0  0  0  0  0
    7.1672   10.4818  -19.2683 N   0  0  0  0  0  0  0  0  0  0  0  0
    7.2199    9.2667  -21.1505 O   0  0  0  0  0  0  0  0  0  0  0  0
    6.3645    9.9357  -18.9824 H   0  0  0  0  0  0  0  0  0  0  0  0
    7.4901   11.2078  -18.6507 H   0  0  0  0  0  0  0  0  0  0  0  0
 18 19  1  0  0  0
 19 20  1  0  0  0
 20 23  1  0  0  0
 21 23  1  0  0  0
 21 22  1  0  0  0
 22 18  1  0  0  0
  2 11  2  0  0  0
  2 14  1  0  0  0
  3 12  2  0  0  0
  4  5  1  0  0  0
  4  1  2  0  0  0
  6 13  1  0  0  0
  6  7  2  0  0  0
  8  9  2  0  0  0
  9 24  1  0  0  0
 10  5  2  0  0  0
 24 25  1  0  0  0
 23  1  1  0  0  0
 13  3  1  0  0  0
  1 11  1  0  0  0
  2 12  1  0  0  0
  3  4  1  0  0  0
  5  6  1  0  0  0
  7  8  1  0  0  0
  9 10  1  0  0  0
 24 26  2  0  0  0
 13 15  1  0  0  0
 25 27  1  0  0  0
 25 28  1  0  0  0
 14 16  1  0  0  0
 14 17  1  0  0  0
M  END
> <minimizedAffinity>
-8.23863

$$$$
CHEMBL3716812


 26 29  0  0  0  0  0  0  0  0999 V2000
   14.3878   15.0449  -17.7094 N   0  0  0  0  0  0  0  0  0  0  0  0
   15.7288   16.4888  -16.3227 N   0  0  0  0  0  0  0  0  0  0  0  0
   14.9112   16.6839  -14.0867 N   0  0  0  0  0  0  0  0  0  0  0  0
   15.4472   15.8506  -17.4735 C   0  0  0  0  0  0  0  0  0  0  0  0
   14.8488   16.1910  -15.3587 C   0  0  0  0  0  0  0  0  0  0  0  0
   13.7444   15.3623  -15.4550 C   0  0  0  0  0  0  0  0  0  0  0  0
   13.4884   14.7931  -16.7198 C   0  0  0  0  0  0  0  0  0  0  0  0
   13.1646   15.3060  -14.1443 C   0  0  0  0  0  0  0  0  0  0  0  0
   13.8908   16.1695  -13.3212 C   0  0  0  0  0  0  0  0  0  0  0  0
   13.5628   16.3913  -11.9791 C   0  0  0  0  0  0  0  0  0  0  0  0
   12.4496   15.7158  -11.4569 C   0  0  0  0  0  0  0  0  0  0  0  0
   11.7102   14.8232  -12.2395 C   0  0  0  0  0  0  0  0  0  0  0  0
   12.0864   14.5978  -13.5733 C   0  0  0  0  0  0  0  0  0  0  0  0
   16.3770   16.0951  -18.6233 C   0  0  0  0  0  0  0  0  0  0  0  0
   15.6233   17.3242  -13.7714 H   0  0  0  0  0  0  0  0  0  0  0  0
   12.3765   14.0079  -16.9937 N   0  0  0  0  0  0  0  0  0  0  0  0
   12.3581   12.6834  -16.3717 C   0  0  0  0  0  0  0  0  0  0  0  0
   11.0311   11.9913  -16.6622 C   0  0  0  0  0  0  0  0  0  0  0  0
    9.8804   12.7863  -16.0520 C   0  0  0  0  0  0  0  0  0  0  0  0
   10.0472   14.3004  -16.2214 C   0  0  0  0  0  0  0  0  0  0  0  0
   11.1059   14.6806  -17.2548 C   0  0  0  0  0  0  0  0  0  0  0  0
    9.6493   13.5432  -12.6609 N   0  0  0  0  0  0  0  0  0  0  0  0
   10.4993   14.1014  -11.7498 C   0  0  0  0  0  0  0  0  0  0  0  0
   10.2598   13.9890  -10.5516 O   0  0  0  0  0  0  0  0  0  0  0  0
    8.8483   13.0518  -12.2851 H   0  0  0  0  0  0  0  0  0  0  0  0
    9.7500   13.5894  -13.6611 H   0  0  0  0  0  0  0  0  0  0  0  0
  3  5  1  0  0  0
  4  2  2  0  0  0
  5  6  2  0  0  0
  6  8  1  0  0  0
  7 16  1  0  0  0
  7  1  2  0  0  0
 17 16  1  0  0  0
 17 18  1  0  0  0
 18 19  1  0  0  0
 19 20  1  0  0  0
 20 21  1  0  0  0
 21 16  1  0  0  0
  9  3  1  0  0  0
  9 10  2  0  0  0
 11 12  2  0  0  0
 12 23  1  0  0  0
 13  8  2  0  0  0
 23 22  1  0  0  0
 14  4  1  0  0  0
  4  1  1  0  0  0
  5  2  1  0  0  0
  6  7  1  0  0  0
  8  9  1  0  0  0
 10 11  1  0  0  0
 12 13  1  0  0  0
 23 24  2  0  0  0
  3 15  1  0  0  0
 22 25  1  0  0  0
 22 26  1  0  0  0
M  END
> <minimizedAffinity>
-9.34583

$$$$
CHEMBL3716812


 26 29  0  0  0  0  0  0  0  0999 V2000
   11.2461   14.4976  -13.6245 N   0  0  0  0  0  0  0  0  0  0  0  0
   12.4907   15.3291  -11.7361 N   0  0  0  0  0  0  0  0  0  0  0  0
   14.5132   16.4428  -12.3490 N   0  0  0  0  0  0  0  0  0  0  0  0
   11.4333   14.7211  -12.3045 C   0  0  0  0  0  0  0  0  0  0  0  0
   13.3629   15.7713  -12.6505 C   0  0  0  0  0  0  0  0  0  0  0  0
   13.2792   15.6390  -14.0257 C   0  0  0  0  0  0  0  0  0  0  0  0
   12.1710   14.9248  -14.5267 C   0  0  0  0  0  0  0  0  0  0  0  0
   14.4083   16.3367  -14.5693 C   0  0  0  0  0  0  0  0  0  0  0  0
   15.1799   16.7949  -13.4993 C   0  0  0  0  0  0  0  0  0  0  0  0
   16.3863   17.4820  -13.6746 C   0  0  0  0  0  0  0  0  0  0  0  0
   16.8282   17.7043  -14.9875 C   0  0  0  0  0  0  0  0  0  0  0  0
   16.0737   17.2845  -16.0876 C   0  0  0  0  0  0  0  0  0  0  0  0
   14.8510   16.6271  -15.8770 C   0  0  0  0  0  0  0  0  0  0  0  0
   10.3792   14.1977  -11.3765 C   0  0  0  0  0  0  0  0  0  0  0  0
   14.8059   16.6518  -11.4071 H   0  0  0  0  0  0  0  0  0  0  0  0
   11.9909   14.6394  -15.8735 N   0  0  0  0  0  0  0  0  0  0  0  0
   12.6653   13.4395  -16.3703 C   0  0  0  0  0  0  0  0  0  0  0  0
   12.2792   13.1906  -17.8240 C   0  0  0  0  0  0  0  0  0  0  0  0
   10.7787   12.9353  -17.9317 C   0  0  0  0  0  0  0  0  0  0  0  0
    9.9515   13.8591  -17.0309 C   0  0  0  0  0  0  0  0  0  0  0  0
   10.7407   15.0563  -16.5046 C   0  0  0  0  0  0  0  0  0  0  0  0
   16.1814   18.6196  -18.1538 N   0  0  0  0  0  0  0  0  0  0  0  0
   16.5071   17.4636  -17.5043 C   0  0  0  0  0  0  0  0  0  0  0  0
   17.1573   16.6036  -18.0903 O   0  0  0  0  0  0  0  0  0  0  0  0
   16.5066   18.7049  -19.1083 H   0  0  0  0  0  0  0  0  0  0  0  0
   15.6437   19.3772  -17.7671 H   0  0  0  0  0  0  0  0  0  0  0  0
  3  5  1  0  0  0
  4  2  2  0  0  0
  5  6  2  0  0  0
  6  8  1  0  0  0
  7 16  1  0  0  0
  7  1  2  0  0  0
 17 16  1  0  0  0
 17 18  1  0  0  0
 18 19  1  0  0  0
 19 20  1  0  0  0
 20 21  1  0  0  0
 21 16  1  0  0  0
  9  3  1  0  0  0
  9 10  2  0  0  0
 11 12  2  0  0  0
 12 23  1  0  0  0
 13  8  2  0  0  0
 23 22  1  0  0  0
 14  4  1  0  0  0
  4  1  1  0  0  0
  5  2  1  0  0  0
  6  7  1  0  0  0
  8  9  1  0  0  0
 10 11  1  0  0  0
 12 13  1  0  0  0
 23 24  2  0  0  0
  3 15  1  0  0  0
 22 25  1  0  0  0
 22 26  1  0  0  0
M  END
> <minimizedAffinity>
-9.28603

$$$$
CHEMBL3716812


 26 29  0  0  0  0  0  0  0  0999 V2000
   10.1968   12.6556  -18.0750 N   0  0  0  0  0  0  0  0  0  0  0  0
    8.3785   12.3472  -16.5242 N   0  0  0  0  0  0  0  0  0  0  0  0
    8.8597   13.1499  -14.3264 N   0  0  0  0  0  0  0  0  0  0  0  0
    8.9445   12.2702  -17.7427 C   0  0  0  0  0  0  0  0  0  0  0  0
    9.1913   12.9270  -15.6323 C   0  0  0  0  0  0  0  0  0  0  0  0
   10.4769   13.3935  -15.8447 C   0  0  0  0  0  0  0  0  0  0  0  0
   11.0133   13.2057  -17.1356 C   0  0  0  0  0  0  0  0  0  0  0  0
   10.8998   13.9919  -14.6117 C   0  0  0  0  0  0  0  0  0  0  0  0
    9.8858   13.7913  -13.6726 C   0  0  0  0  0  0  0  0  0  0  0  0
    9.9912   14.2121  -12.3422 C   0  0  0  0  0  0  0  0  0  0  0  0
   11.1758   14.8538  -11.9504 C   0  0  0  0  0  0  0  0  0  0  0  0
   12.2055   15.0969  -12.8650 C   0  0  0  0  0  0  0  0  0  0  0  0
   12.0538   14.6915  -14.2007 C   0  0  0  0  0  0  0  0  0  0  0  0
    8.1189   11.6521  -18.8302 C   0  0  0  0  0  0  0  0  0  0  0  0
    7.9746   12.8846  -13.9231 H   0  0  0  0  0  0  0  0  0  0  0  0
   12.3148   13.5457  -17.4794 N   0  0  0  0  0  0  0  0  0  0  0  0
   12.5170   14.9179  -17.9460 C   0  0  0  0  0  0  0  0  0  0  0  0
   14.0028   15.1776  -18.1680 C   0  0  0  0  0  0  0  0  0  0  0  0
   14.7619   15.0380  -16.8517 C   0  0  0  0  0  0  0  0  0  0  0  0
   14.2737   13.8573  -16.0052 C   0  0  0  0  0  0  0  0  0  0  0  0
   13.4091   12.8696  -16.7863 C   0  0  0  0  0  0  0  0  0  0  0  0
   14.2169   16.3808  -13.4724 N   0  0  0  0  0  0  0  0  0  0  0  0
   13.4993   15.7449  -12.5003 C   0  0  0  0  0  0  0  0  0  0  0  0
   13.9231   15.7290  -11.3489 O   0  0  0  0  0  0  0  0  0  0  0  0
   15.0812   16.8178  -13.1788 H   0  0  0  0  0  0  0  0  0  0  0  0
   13.9627   16.4398  -14.4443 H   0  0  0  0  0  0  0  0  0  0  0  0
  3  5  1  0  0  0
  4  2  2  0  0  0
  5  6  2  0  0  0
  6  8  1  0  0  0
  7 16  1  0  0  0
  7  1  2  0  0  0
 17 16  1  0  0  0
 17 18  1  0  0  0
 18 19  1  0  0  0
 19 20  1  0  0  0
 20 21  1  0  0  0
 21 16  1  0  0  0
  9  3  1  0  0  0
  9 10  2  0  0  0
 11 12  2  0  0  0
 12 23  1  0  0  0
 13  8  2  0  0  0
 23 22  1  0  0  0
 14  4  1  0  0  0
  4  1  1  0  0  0
  5  2  1  0  0  0
  6  7  1  0  0  0
  8  9  1  0  0  0
 10 11  1  0  0  0
 12 13  1  0  0  0
 23 24  2  0  0  0
  3 15  1  0  0  0
 22 25  1  0  0  0
 22 26  1  0  0  0
M  END
> <minimizedAffinity>
-9.07908

$$$$
CHEMBL3716812


 26 29  0  0  0  0  0  0  0  0999 V2000
    9.2351   13.4682  -15.0209 N   0  0  0  0  0  0  0  0  0  0  0  0
    9.4985   13.8160  -12.6511 N   0  0  0  0  0  0  0  0  0  0  0  0
   11.5370   14.9201  -12.0751 N   0  0  0  0  0  0  0  0  0  0  0  0
    8.8202   13.3997  -13.7362 C   0  0  0  0  0  0  0  0  0  0  0  0
   10.6618   14.3911  -12.9802 C   0  0  0  0  0  0  0  0  0  0  0  0
   11.1900   14.5544  -14.2490 C   0  0  0  0  0  0  0  0  0  0  0  0
   10.4411   14.0231  -15.3196 C   0  0  0  0  0  0  0  0  0  0  0  0
   12.4124   15.2871  -14.0878 C   0  0  0  0  0  0  0  0  0  0  0  0
   12.6219   15.4679  -12.7190 C   0  0  0  0  0  0  0  0  0  0  0  0
   13.7542   16.1089  -12.2040 C   0  0  0  0  0  0  0  0  0  0  0  0
   14.7130   16.5764  -13.1152 C   0  0  0  0  0  0  0  0  0  0  0  0
   14.5304   16.4384  -14.4948 C   0  0  0  0  0  0  0  0  0  0  0  0
   13.3668   15.8200  -14.9797 C   0  0  0  0  0  0  0  0  0  0  0  0
    7.4907   12.7526  -13.4912 C   0  0  0  0  0  0  0  0  0  0  0  0
   11.3820   14.9108  -11.0789 H   0  0  0  0  0  0  0  0  0  0  0  0
   10.8768   14.0364  -16.6379 N   0  0  0  0  0  0  0  0  0  0  0  0
   11.9081   13.0569  -16.9821 C   0  0  0  0  0  0  0  0  0  0  0  0
   12.1954   13.1090  -18.4785 C   0  0  0  0  0  0  0  0  0  0  0  0
   10.9436   12.7336  -19.2662 C   0  0  0  0  0  0  0  0  0  0  0  0
    9.6650   13.3378  -18.6753 C   0  0  0  0  0  0  0  0  0  0  0  0
    9.9328   14.4570  -17.6709 C   0  0  0  0  0  0  0  0  0  0  0  0
   15.3810   16.4802  -16.8052 N   0  0  0  0  0  0  0  0  0  0  0  0
   15.5285   16.8860  -15.5098 C   0  0  0  0  0  0  0  0  0  0  0  0
   16.4667   17.6173  -15.2087 O   0  0  0  0  0  0  0  0  0  0  0  0
   16.0724   16.8178  -17.4627 H   0  0  0  0  0  0  0  0  0  0  0  0
   14.6559   15.8737  -17.1501 H   0  0  0  0  0  0  0  0  0  0  0  0
  3  5  1  0  0  0
  4  2  2  0  0  0
  5  6  2  0  0  0
  6  8  1  0  0  0
  7 16  1  0  0  0
  7  1  2  0  0  0
 17 16  1  0  0  0
 17 18  1  0  0  0
 18 19  1  0  0  0
 19 20  1  0  0  0
 20 21  1  0  0  0
 21 16  1  0  0  0
  9  3  1  0  0  0
  9 10  2  0  0  0
 11 12  2  0  0  0
 12 23  1  0  0  0
 13  8  2  0  0  0
 23 22  1  0  0  0
 14  4  1  0  0  0
  4  1  1  0  0  0
  5  2  1  0  0  0
  6  7  1  0  0  0
  8  9  1  0  0  0
 10 11  1  0  0  0
 12 13  1  0  0  0
 23 24  2  0  0  0
  3 15  1  0  0  0
 22 25  1  0  0  0
 22 26  1  0  0  0
M  END
> <minimizedAffinity>
-9.04628

$$$$
CHEMBL3716812


 26 29  0  0  0  0  0  0  0  0999 V2000
   11.9893   13.5888  -19.4189 N   0  0  0  0  0  0  0  0  0  0  0  0
   14.0694   14.7899  -19.2254 N   0  0  0  0  0  0  0  0  0  0  0  0
   14.5002   15.5911  -17.0166 N   0  0  0  0  0  0  0  0  0  0  0  0
   13.1525   14.0769  -19.9050 C   0  0  0  0  0  0  0  0  0  0  0  0
   13.7369   14.9303  -17.9362 C   0  0  0  0  0  0  0  0  0  0  0  0
   12.5997   14.4574  -17.3046 C   0  0  0  0  0  0  0  0  0  0  0  0
   11.6611   13.7826  -18.1126 C   0  0  0  0  0  0  0  0  0  0  0  0
   12.7361   14.7959  -15.9175 C   0  0  0  0  0  0  0  0  0  0  0  0
   13.9122   15.5353  -15.7744 C   0  0  0  0  0  0  0  0  0  0  0  0
   14.3284   16.0672  -14.5489 C   0  0  0  0  0  0  0  0  0  0  0  0
   13.5135   15.8456  -13.4285 C   0  0  0  0  0  0  0  0  0  0  0  0
   12.3407   15.0896  -13.5229 C   0  0  0  0  0  0  0  0  0  0  0  0
   11.9691   14.5417  -14.7611 C   0  0  0  0  0  0  0  0  0  0  0  0
   13.4270   13.8403  -21.3593 C   0  0  0  0  0  0  0  0  0  0  0  0
   15.3761   16.0387  -17.2377 H   0  0  0  0  0  0  0  0  0  0  0  0
   10.4383   13.3227  -17.6424 N   0  0  0  0  0  0  0  0  0  0  0  0
    9.3809   14.3265  -17.5176 C   0  0  0  0  0  0  0  0  0  0  0  0
    8.0737   13.6563  -17.1095 C   0  0  0  0  0  0  0  0  0  0  0  0
    7.6296   12.6728  -18.1884 C   0  0  0  0  0  0  0  0  0  0  0  0
    8.7936   11.8661  -18.7742 C   0  0  0  0  0  0  0  0  0  0  0  0
   10.0654   11.9397  -17.9313 C   0  0  0  0  0  0  0  0  0  0  0  0
   11.9278   14.8404  -11.1082 N   0  0  0  0  0  0  0  0  0  0  0  0
   11.4184   14.8476  -12.3750 C   0  0  0  0  0  0  0  0  0  0  0  0
   10.2163   14.6685  -12.5441 O   0  0  0  0  0  0  0  0  0  0  0  0
   11.2652   14.6860  -10.3590 H   0  0  0  0  0  0  0  0  0  0  0  0
   12.8964   14.9650  -10.8656 H   0  0  0  0  0  0  0  0  0  0  0  0
  3  5  1  0  0  0
  4  2  2  0  0  0
  5  6  2  0  0  0
  6  8  1  0  0  0
  7 16  1  0  0  0
  7  1  2  0  0  0
 17 16  1  0  0  0
 17 18  1  0  0  0
 18 19  1  0  0  0
 19 20  1  0  0  0
 20 21  1  0  0  0
 21 16  1  0  0  0
  9  3  1  0  0  0
  9 10  2  0  0  0
 11 12  2  0  0  0
 12 23  1  0  0  0
 13  8  2  0  0  0
 23 22  1  0  0  0
 14  4  1  0  0  0
  4  1  1  0  0  0
  5  2  1  0  0  0
  6  7  1  0  0  0
  8  9  1  0  0  0
 10 11  1  0  0  0
 12 13  1  0  0  0
 23 24  2  0  0  0
  3 15  1  0  0  0
 22 25  1  0  0  0
 22 26  1  0  0  0
M  END
> <minimizedAffinity>
-8.80942

$$$$
CHEMBL3716812


 26 29  0  0  0  0  0  0  0  0999 V2000
   13.7479   14.9942  -16.9398 N   0  0  0  0  0  0  0  0  0  0  0  0
   14.5447   14.2860  -19.1008 N   0  0  0  0  0  0  0  0  0  0  0  0
   12.9613   12.9690  -20.3108 N   0  0  0  0  0  0  0  0  0  0  0  0
   14.6612   14.9487  -17.9354 C   0  0  0  0  0  0  0  0  0  0  0  0
   13.3516   13.6905  -19.2190 C   0  0  0  0  0  0  0  0  0  0  0  0
   12.3200   13.6836  -18.2963 C   0  0  0  0  0  0  0  0  0  0  0  0
   12.5596   14.3450  -17.0739 C   0  0  0  0  0  0  0  0  0  0  0  0
   11.2319   12.9791  -18.9104 C   0  0  0  0  0  0  0  0  0  0  0  0
   11.6737   12.5127  -20.1503 C   0  0  0  0  0  0  0  0  0  0  0  0
   10.8724   11.7404  -20.9987 C   0  0  0  0  0  0  0  0  0  0  0  0
    9.5759   11.4241  -20.5659 C   0  0  0  0  0  0  0  0  0  0  0  0
    9.0852   11.8919  -19.3427 C   0  0  0  0  0  0  0  0  0  0  0  0
    9.9038   12.6927  -18.5302 C   0  0  0  0  0  0  0  0  0  0  0  0
   15.9530   15.6706  -17.6981 C   0  0  0  0  0  0  0  0  0  0  0  0
   13.5476   12.8166  -21.1168 H   0  0  0  0  0  0  0  0  0  0  0  0
   11.6550   14.3559  -16.0206 N   0  0  0  0  0  0  0  0  0  0  0  0
   11.5563   13.1174  -15.2475 C   0  0  0  0  0  0  0  0  0  0  0  0
   10.6212   13.3191  -14.0602 C   0  0  0  0  0  0  0  0  0  0  0  0
   11.1842   14.3849  -13.1245 C   0  0  0  0  0  0  0  0  0  0  0  0
   11.7927   15.5746  -13.8750 C   0  0  0  0  0  0  0  0  0  0  0  0
   11.3954   15.6275  -15.3490 C   0  0  0  0  0  0  0  0  0  0  0  0
    7.1659   10.3622  -19.1436 N   0  0  0  0  0  0  0  0  0  0  0  0
    7.7288   11.5621  -18.8153 C   0  0  0  0  0  0  0  0  0  0  0  0
    7.1174   12.3373  -18.0866 O   0  0  0  0  0  0  0  0  0  0  0  0
    6.2513   10.1740  -18.7536 H   0  0  0  0  0  0  0  0  0  0  0  0
    7.5785    9.6656  -19.7412 H   0  0  0  0  0  0  0  0  0  0  0  0
  3  5  1  0  0  0
  4  2  2  0  0  0
  5  6  2  0  0  0
  6  8  1  0  0  0
  7 16  1  0  0  0
  7  1  2  0  0  0
 17 16  1  0  0  0
 17 18  1  0  0  0
 18 19  1  0  0  0
 19 20  1  0  0  0
 20 21  1  0  0  0
 21 16  1  0  0  0
  9  3  1  0  0  0
  9 10  2  0  0  0
 11 12  2  0  0  0
 12 23  1  0  0  0
 13  8  2  0  0  0
 23 22  1  0  0  0
 14  4  1  0  0  0
  4  1  1  0  0  0
  5  2  1  0  0  0
  6  7  1  0  0  0
  8  9  1  0  0  0
 10 11  1  0  0  0
 12 13  1  0  0  0
 23 24  2  0  0  0
  3 15  1  0  0  0
 22 25  1  0  0  0
 22 26  1  0  0  0
M  END
> <minimizedAffinity>
-8.77751

$$$$
CHEMBL3716812


 26 29  0  0  0  0  0  0  0  0999 V2000
   12.5282   13.2318  -18.9831 N   0  0  0  0  0  0  0  0  0  0  0  0
   14.3411   14.7238  -19.5251 N   0  0  0  0  0  0  0  0  0  0  0  0
   15.1015   16.0092  -17.6607 N   0  0  0  0  0  0  0  0  0  0  0  0
   13.4424   13.7674  -19.8226 C   0  0  0  0  0  0  0  0  0  0  0  0
   14.2864   15.0758  -18.2345 C   0  0  0  0  0  0  0  0  0  0  0  0
   13.4269   14.5881  -17.2655 C   0  0  0  0  0  0  0  0  0  0  0  0
   12.4715   13.6396  -17.6861 C   0  0  0  0  0  0  0  0  0  0  0  0
   13.8063   15.2171  -16.0336 C   0  0  0  0  0  0  0  0  0  0  0  0
   14.8279   16.1260  -16.3179 C   0  0  0  0  0  0  0  0  0  0  0  0
   15.4032   16.9484  -15.3428 C   0  0  0  0  0  0  0  0  0  0  0  0
   14.9156   16.8484  -14.0311 C   0  0  0  0  0  0  0  0  0  0  0  0
   13.9112   15.9337  -13.6986 C   0  0  0  0  0  0  0  0  0  0  0  0
   13.3786   15.0994  -14.6944 C   0  0  0  0  0  0  0  0  0  0  0  0
   13.4223   13.2805  -21.2399 C   0  0  0  0  0  0  0  0  0  0  0  0
   15.8078   16.5196  -18.1679 H   0  0  0  0  0  0  0  0  0  0  0  0
   11.4915   13.1198  -16.8511 N   0  0  0  0  0  0  0  0  0  0  0  0
   11.9475   12.1528  -15.8519 C   0  0  0  0  0  0  0  0  0  0  0  0
   10.7906   11.7658  -14.9374 C   0  0  0  0  0  0  0  0  0  0  0  0
   10.2912   12.9907  -14.1767 C   0  0  0  0  0  0  0  0  0  0  0  0
   10.2360   14.2506  -15.0476 C   0  0  0  0  0  0  0  0  0  0  0  0
   10.3341   13.9570  -16.5434 C   0  0  0  0  0  0  0  0  0  0  0  0
   11.9825   15.6337  -12.1975 N   0  0  0  0  0  0  0  0  0  0  0  0
   13.3307   15.8046  -12.3300 C   0  0  0  0  0  0  0  0  0  0  0  0
   14.0374   15.8359  -11.3273 O   0  0  0  0  0  0  0  0  0  0  0  0
   11.6331   15.5371  -11.2526 H   0  0  0  0  0  0  0  0  0  0  0  0
   11.3185   15.6064  -12.9531 H   0  0  0  0  0  0  0  0  0  0  0  0
  3  5  1  0  0  0
  4  2  2  0  0  0
  5  6  2  0  0  0
  6  8  1  0  0  0
  7 16  1  0  0  0
  7  1  2  0  0  0
 17 16  1  0  0  0
 17 18  1  0  0  0
 18 19  1  0  0  0
 19 20  1  0  0  0
 20 21  1  0  0  0
 21 16  1  0  0  0
  9  3  1  0  0  0
  9 10  2  0  0  0
 11 12  2  0  0  0
 12 23  1  0  0  0
 13  8  2  0  0  0
 23 22  1  0  0  0
 14  4  1  0  0  0
  4  1  1  0  0  0
  5  2  1  0  0  0
  6  7  1  0  0  0
  8  9  1  0  0  0
 10 11  1  0  0  0
 12 13  1  0  0  0
 23 24  2  0  0  0
  3 15  1  0  0  0
 22 25  1  0  0  0
 22 26  1  0  0  0
M  END
> <minimizedAffinity>
-8.65479

$$$$
CHEMBL3716812


 26 29  0  0  0  0  0  0  0  0999 V2000
   14.9968   15.2045  -18.6052 N   0  0  0  0  0  0  0  0  0  0  0  0
   15.6017   16.0916  -16.4480 N   0  0  0  0  0  0  0  0  0  0  0  0
   13.9491   15.7068  -14.7667 N   0  0  0  0  0  0  0  0  0  0  0  0
   15.8345   15.8283  -17.7470 C   0  0  0  0  0  0  0  0  0  0  0  0
   14.4242   15.6003  -16.0425 C   0  0  0  0  0  0  0  0  0  0  0  0
   13.4906   14.9184  -16.8034 C   0  0  0  0  0  0  0  0  0  0  0  0
   13.7892   14.7513  -18.1717 C   0  0  0  0  0  0  0  0  0  0  0  0
   12.4378   14.5372  -15.9069 C   0  0  0  0  0  0  0  0  0  0  0  0
   12.7326   15.0752  -14.6523 C   0  0  0  0  0  0  0  0  0  0  0  0
   11.8847   14.9322  -13.5484 C   0  0  0  0  0  0  0  0  0  0  0  0
   10.6883   14.2223  -13.7295 C   0  0  0  0  0  0  0  0  0  0  0  0
   10.3664   13.6460  -14.9624 C   0  0  0  0  0  0  0  0  0  0  0  0
   11.2553   13.7797  -16.0411 C   0  0  0  0  0  0  0  0  0  0  0  0
   17.1344   16.3175  -18.3102 C   0  0  0  0  0  0  0  0  0  0  0  0
   14.4447   16.1763  -14.0248 H   0  0  0  0  0  0  0  0  0  0  0  0
   12.9178   14.1618  -19.0777 N   0  0  0  0  0  0  0  0  0  0  0  0
   12.4970   15.0001  -20.2009 C   0  0  0  0  0  0  0  0  0  0  0  0
   11.6460   14.1845  -21.1679 C   0  0  0  0  0  0  0  0  0  0  0  0
   12.4675   13.0382  -21.7506 C   0  0  0  0  0  0  0  0  0  0  0  0
   13.3675   12.3620  -20.7106 C   0  0  0  0  0  0  0  0  0  0  0  0
   12.9997   12.7157  -19.2708 C   0  0  0  0  0  0  0  0  0  0  0  0
    8.2100   12.7344  -14.1994 N   0  0  0  0  0  0  0  0  0  0  0  0
    9.0958   12.9085  -15.2239 C   0  0  0  0  0  0  0  0  0  0  0  0
    8.8262   12.4686  -16.3372 O   0  0  0  0  0  0  0  0  0  0  0  0
    7.3556   12.2406  -14.4240 H   0  0  0  0  0  0  0  0  0  0  0  0
    8.3422   13.0452  -13.2515 H   0  0  0  0  0  0  0  0  0  0  0  0
  3  5  1  0  0  0
  4  2  2  0  0  0
  5  6  2  0  0  0
  6  8  1  0  0  0
  7 16  1  0  0  0
  7  1  2  0  0  0
 17 16  1  0  0  0
 17 18  1  0  0  0
 18 19  1  0  0  0
 19 20  1  0  0  0
 20 21  1  0  0  0
 21 16  1  0  0  0
  9  3  1  0  0  0
  9 10  2  0  0  0
 11 12  2  0  0  0
 12 23  1  0  0  0
 13  8  2  0  0  0
 23 22  1  0  0  0
 14  4  1  0  0  0
  4  1  1  0  0  0
  5  2  1  0  0  0
  6  7  1  0  0  0
  8  9  1  0  0  0
 10 11  1  0  0  0
 12 13  1  0  0  0
 23 24  2  0  0  0
  3 15  1  0  0  0
 22 25  1  0  0  0
 22 26  1  0  0  0
M  END
> <minimizedAffinity>
-8.50937

$$$$
CHEMBL3716812


 26 29  0  0  0  0  0  0  0  0999 V2000
   14.9873   16.2791  -15.4500 N   0  0  0  0  0  0  0  0  0  0  0  0
   14.8403   16.8630  -13.1167 N   0  0  0  0  0  0  0  0  0  0  0  0
   12.8831   16.0083  -12.0465 N   0  0  0  0  0  0  0  0  0  0  0  0
   15.4518   16.8486  -14.3154 C   0  0  0  0  0  0  0  0  0  0  0  0
   13.6932   16.1728  -13.1335 C   0  0  0  0  0  0  0  0  0  0  0  0
   13.1210   15.5187  -14.2107 C   0  0  0  0  0  0  0  0  0  0  0  0
   13.7980   15.6180  -15.4441 C   0  0  0  0  0  0  0  0  0  0  0  0
   11.9430   14.8701  -13.7118 C   0  0  0  0  0  0  0  0  0  0  0  0
   11.7998   15.2243  -12.3685 C   0  0  0  0  0  0  0  0  0  0  0  0
   10.7223   14.7991  -11.5835 C   0  0  0  0  0  0  0  0  0  0  0  0
    9.7498   13.9899  -12.1899 C   0  0  0  0  0  0  0  0  0  0  0  0
    9.8677   13.5913  -13.5252 C   0  0  0  0  0  0  0  0  0  0  0  0
   10.9789   14.0082  -14.2756 C   0  0  0  0  0  0  0  0  0  0  0  0
   16.7577   17.5775  -14.4132 C   0  0  0  0  0  0  0  0  0  0  0  0
   13.0790   16.4046  -11.1404 H   0  0  0  0  0  0  0  0  0  0  0  0
   13.3087   15.0860  -16.6296 N   0  0  0  0  0  0  0  0  0  0  0  0
   13.7182   13.7145  -16.9339 C   0  0  0  0  0  0  0  0  0  0  0  0
   13.0108   13.2285  -18.1940 C   0  0  0  0  0  0  0  0  0  0  0  0
   11.5014   13.2041  -17.9717 C   0  0  0  0  0  0  0  0  0  0  0  0
   10.9952   14.4203  -17.1885 C   0  0  0  0  0  0  0  0  0  0  0  0
   12.0126   15.5572  -17.1126 C   0  0  0  0  0  0  0  0  0  0  0  0
    7.6008   12.6452  -13.6954 N   0  0  0  0  0  0  0  0  0  0  0  0
    8.8508   12.7594  -14.2328 C   0  0  0  0  0  0  0  0  0  0  0  0
    9.1094   12.1894  -15.2882 O   0  0  0  0  0  0  0  0  0  0  0  0
    6.9388   12.0828  -14.2147 H   0  0  0  0  0  0  0  0  0  0  0  0
    7.2938   13.0618  -12.8324 H   0  0  0  0  0  0  0  0  0  0  0  0
  3  5  1  0  0  0
  4  2  2  0  0  0
  5  6  2  0  0  0
  6  8  1  0  0  0
  7 16  1  0  0  0
  7  1  2  0  0  0
 17 16  1  0  0  0
 17 18  1  0  0  0
 18 19  1  0  0  0
 19 20  1  0  0  0
 20 21  1  0  0  0
 21 16  1  0  0  0
  9  3  1  0  0  0
  9 10  2  0  0  0
 11 12  2  0  0  0
 12 23  1  0  0  0
 13  8  2  0  0  0
 23 22  1  0  0  0
 14  4  1  0  0  0
  4  1  1  0  0  0
  5  2  1  0  0  0
  6  7  1  0  0  0
  8  9  1  0  0  0
 10 11  1  0  0  0
 12 13  1  0  0  0
 23 24  2  0  0  0
  3 15  1  0  0  0
 22 25  1  0  0  0
 22 26  1  0  0  0
M  END
> <minimizedAffinity>
-8.42731

$$$$
CHEMBL258838


 25 29  0  0  0  0  0  0  0  0999 V2000
   12.1991   14.5424  -15.3242 C   0  0  0  0  0  0  0  0  0  0  0  0
   12.2214   13.0025  -15.4782 C   0  0  0  0  0  0  0  0  0  0  0  0
   11.4382   12.5037  -16.6971 C   0  0  0  0  0  0  0  0  0  0  0  0
   10.6958   14.7018  -17.3889 C   0  0  0  0  0  0  0  0  0  0  0  0
   10.9088   15.1198  -15.9283 C   0  0  0  0  0  0  0  0  0  0  0  0
   10.9117   12.9334  -19.0099 C   0  0  0  0  0  0  0  0  0  0  0  0
   13.4845   15.1904  -15.9554 C   0  0  0  0  0  0  0  0  0  0  0  0
   13.4812   15.7337  -13.6992 C   0  0  0  0  0  0  0  0  0  0  0  0
   12.3406   14.9488  -13.8749 C   0  0  0  0  0  0  0  0  0  0  0  0
   11.5161   14.6138  -12.8044 C   0  0  0  0  0  0  0  0  0  0  0  0
   11.8668   15.0473  -11.5275 C   0  0  0  0  0  0  0  0  0  0  0  0
   13.0356   15.7899  -11.3342 C   0  0  0  0  0  0  0  0  0  0  0  0
   13.8494   16.1260  -12.4205 C   0  0  0  0  0  0  0  0  0  0  0  0
   11.4456   13.4966  -17.7692 N   0  0  0  0  0  0  0  0  0  0  0  0
   14.1486   15.9800  -14.9055 N   0  0  0  0  0  0  0  0  0  0  0  0
   15.3113   16.6799  -15.2066 C   0  0  0  0  0  0  0  0  0  0  0  0
   16.9930   18.1608  -14.5356 C   0  0  0  0  0  0  0  0  0  0  0  0
   17.0393   17.4920  -16.6421 C   0  0  0  0  0  0  0  0  0  0  0  0
   15.9282   16.6769  -16.4771 C   0  0  0  0  0  0  0  0  0  0  0  0
   15.7489   15.9981  -17.7204 C   0  0  0  0  0  0  0  0  0  0  0  0
   16.7079   16.4541  -18.6006 C   0  0  0  0  0  0  0  0  0  0  0  0
   15.9179   17.4099  -14.2270 N   0  0  0  0  0  0  0  0  0  0  0  0
   17.6134   18.2755  -15.7203 N   0  0  0  0  0  0  0  0  0  0  0  0
   17.4764   17.3708  -17.9326 N   0  0  0  0  0  0  0  0  0  0  0  0
   18.2672   17.8770  -18.3058 H   0  0  0  0  0  0  0  0  0  0  0  0
  1  2  1  0  0  0
  1  7  1  0  0  0
  1  9  1  0  0  0
  2  3  1  0  0  0
  3 14  1  0  0  0
  4 14  1  0  0  0
  4  5  1  0  0  0
  5  1  1  0  0  0
  6 14  1  0  0  0
  7 15  1  0  0  0
 17 22  2  0  0  0
 18 23  2  0  0  0
 19 20  1  0  0  0
 19 16  2  0  0  0
 21 24  1  0  0  0
  9 10  2  0  0  0
 11 12  2  0  0  0
 13  8  2  0  0  0
 15 16  1  0  0  0
 15  8  1  0  0  0
 24 18  1  0  0  0
 16 22  1  0  0  0
 17 23  1  0  0  0
 18 19  1  0  0  0
 20 21  2  0  0  0
  8  9  1  0  0  0
 10 11  1  0  0  0
 12 13  1  0  0  0
 24 25  1  0  0  0
M  END
> <minimizedAffinity>
-9.88594

$$$$
CHEMBL258838


 25 29  0  0  0  0  0  0  0  0999 V2000
   12.1128   14.4896  -15.6489 C   0  0  0  0  0  0  0  0  0  0  0  0
   11.8644   12.9754  -15.4465 C   0  0  0  0  0  0  0  0  0  0  0  0
   10.7403   12.4222  -16.3287 C   0  0  0  0  0  0  0  0  0  0  0  0
   10.1908   14.5535  -17.3372 C   0  0  0  0  0  0  0  0  0  0  0  0
   10.8159   15.1884  -16.0883 C   0  0  0  0  0  0  0  0  0  0  0  0
    9.7338   12.5042  -18.5175 C   0  0  0  0  0  0  0  0  0  0  0  0
   13.2866   14.7373  -16.6644 C   0  0  0  0  0  0  0  0  0  0  0  0
   13.9186   15.6857  -14.6429 C   0  0  0  0  0  0  0  0  0  0  0  0
   12.6649   15.1254  -14.3933 C   0  0  0  0  0  0  0  0  0  0  0  0
   12.0873   15.1697  -13.1274 C   0  0  0  0  0  0  0  0  0  0  0  0
   12.8016   15.7574  -12.0853 C   0  0  0  0  0  0  0  0  0  0  0  0
   14.0802   16.2746  -12.3144 C   0  0  0  0  0  0  0  0  0  0  0  0
   14.6438   16.2307  -13.5933 C   0  0  0  0  0  0  0  0  0  0  0  0
   10.6341   13.1733  -17.5777 N   0  0  0  0  0  0  0  0  0  0  0  0
   14.2991   15.5620  -15.9850 N   0  0  0  0  0  0  0  0  0  0  0  0
   15.4441   15.9462  -16.6730 C   0  0  0  0  0  0  0  0  0  0  0  0
   17.0395   15.4966  -18.3234 C   0  0  0  0  0  0  0  0  0  0  0  0
   17.3583   17.3099  -17.0999 C   0  0  0  0  0  0  0  0  0  0  0  0
   16.1925   17.1064  -16.3751 C   0  0  0  0  0  0  0  0  0  0  0  0
   16.0662   18.2328  -15.5067 C   0  0  0  0  0  0  0  0  0  0  0  0
   17.1669   19.0430  -15.6918 C   0  0  0  0  0  0  0  0  0  0  0  0
   15.8823   15.1783  -17.7117 N   0  0  0  0  0  0  0  0  0  0  0  0
   17.8522   16.5355  -18.0743 N   0  0  0  0  0  0  0  0  0  0  0  0
   17.9484   18.4610  -16.6550 N   0  0  0  0  0  0  0  0  0  0  0  0
   18.8209   18.8193  -17.0175 H   0  0  0  0  0  0  0  0  0  0  0  0
  1  2  1  0  0  0
  1  7  1  0  0  0
  1  9  1  0  0  0
  2  3  1  0  0  0
  3 14  1  0  0  0
  4 14  1  0  0  0
  4  5  1  0  0  0
  5  1  1  0  0  0
  6 14  1  0  0  0
  7 15  1  0  0  0
 17 22  2  0  0  0
 18 23  2  0  0  0
 19 20  1  0  0  0
 19 16  2  0  0  0
 21 24  1  0  0  0
  9 10  2  0  0  0
 11 12  2  0  0  0
 13  8  2  0  0  0
 15 16  1  0  0  0
 15  8  1  0  0  0
 24 18  1  0  0  0
 16 22  1  0  0  0
 17 23  1  0  0  0
 18 19  1  0  0  0
 20 21  2  0  0  0
  8  9  1  0  0  0
 10 11  1  0  0  0
 12 13  1  0  0  0
 24 25  1  0  0  0
M  END
> <minimizedAffinity>
-9.69500

$$$$
CHEMBL258838


 25 29  0  0  0  0  0  0  0  0999 V2000
   10.9503   14.1198  -16.8888 C   0  0  0  0  0  0  0  0  0  0  0  0
   10.0273   15.0535  -17.7085 C   0  0  0  0  0  0  0  0  0  0  0  0
    8.6538   14.4416  -18.0036 C   0  0  0  0  0  0  0  0  0  0  0  0
    9.1237   12.3278  -16.9208 C   0  0  0  0  0  0  0  0  0  0  0  0
   10.6035   12.6484  -17.1680 C   0  0  0  0  0  0  0  0  0  0  0  0
    6.8545   13.1148  -17.1020 C   0  0  0  0  0  0  0  0  0  0  0  0
   10.8776   14.4597  -15.3559 C   0  0  0  0  0  0  0  0  0  0  0  0
   13.0769   14.7786  -16.0245 C   0  0  0  0  0  0  0  0  0  0  0  0
   12.4071   14.3926  -17.1866 C   0  0  0  0  0  0  0  0  0  0  0  0
   13.0616   14.3190  -18.4130 C   0  0  0  0  0  0  0  0  0  0  0  0
   14.4070   14.6757  -18.4769 C   0  0  0  0  0  0  0  0  0  0  0  0
   15.0727   15.1137  -17.3280 C   0  0  0  0  0  0  0  0  0  0  0  0
   14.4044   15.1742  -16.1014 C   0  0  0  0  0  0  0  0  0  0  0  0
    8.2546   13.5123  -16.9490 N   0  0  0  0  0  0  0  0  0  0  0  0
   12.2453   14.7541  -14.8980 N   0  0  0  0  0  0  0  0  0  0  0  0
   12.4678   15.0696  -13.5627 C   0  0  0  0  0  0  0  0  0  0  0  0
   13.7712   16.1441  -11.9446 C   0  0  0  0  0  0  0  0  0  0  0  0
   12.0795   14.9253  -11.2101 C   0  0  0  0  0  0  0  0  0  0  0  0
   11.6800   14.5856  -12.4950 C   0  0  0  0  0  0  0  0  0  0  0  0
   10.4812   13.8243  -12.3469 C   0  0  0  0  0  0  0  0  0  0  0  0
   10.2252   13.6845  -10.9989 C   0  0  0  0  0  0  0  0  0  0  0  0
   13.4959   15.9066  -13.2417 N   0  0  0  0  0  0  0  0  0  0  0  0
   13.1262   15.6842  -10.8610 N   0  0  0  0  0  0  0  0  0  0  0  0
   11.2133   14.3495  -10.3217 N   0  0  0  0  0  0  0  0  0  0  0  0
   11.2991   14.4374   -9.3188 H   0  0  0  0  0  0  0  0  0  0  0  0
  1  2  1  0  0  0
  1  7  1  0  0  0
  1  9  1  0  0  0
  2  3  1  0  0  0
  3 14  1  0  0  0
  4 14  1  0  0  0
  4  5  1  0  0  0
  5  1  1  0  0  0
  6 14  1  0  0  0
  7 15  1  0  0  0
 17 22  2  0  0  0
 18 23  2  0  0  0
 19 20  1  0  0  0
 19 16  2  0  0  0
 21 24  1  0  0  0
  9 10  2  0  0  0
 11 12  2  0  0  0
 13  8  2  0  0  0
 15 16  1  0  0  0
 15  8  1  0  0  0
 24 18  1  0  0  0
 16 22  1  0  0  0
 17 23  1  0  0  0
 18 19  1  0  0  0
 20 21  2  0  0  0
  8  9  1  0  0  0
 10 11  1  0  0  0
 12 13  1  0  0  0
 24 25  1  0  0  0
M  END
> <minimizedAffinity>
-8.86000

$$$$
CHEMBL258838


 25 29  0  0  0  0  0  0  0  0999 V2000
   12.5732   13.7405  -19.7419 C   0  0  0  0  0  0  0  0  0  0  0  0
   13.0643   15.1016  -20.2913 C   0  0  0  0  0  0  0  0  0  0  0  0
   13.5766   15.0241  -21.7333 C   0  0  0  0  0  0  0  0  0  0  0  0
   13.2344   12.6376  -21.9543 C   0  0  0  0  0  0  0  0  0  0  0  0
   13.3270   12.5873  -20.4238 C   0  0  0  0  0  0  0  0  0  0  0  0
   13.2029   14.0490  -23.9059 C   0  0  0  0  0  0  0  0  0  0  0  0
   11.0157   13.5984  -19.8988 C   0  0  0  0  0  0  0  0  0  0  0  0
   11.4897   13.4730  -17.6305 C   0  0  0  0  0  0  0  0  0  0  0  0
   12.7300   13.6688  -18.2399 C   0  0  0  0  0  0  0  0  0  0  0  0
   13.8967   13.7945  -17.4910 C   0  0  0  0  0  0  0  0  0  0  0  0
   13.8076   13.7585  -16.1009 C   0  0  0  0  0  0  0  0  0  0  0  0
   12.5629   13.6152  -15.4804 C   0  0  0  0  0  0  0  0  0  0  0  0
   11.4006   13.4814  -16.2461 C   0  0  0  0  0  0  0  0  0  0  0  0
   12.8943   13.9679  -22.4777 N   0  0  0  0  0  0  0  0  0  0  0  0
   10.4537   13.3390  -18.5633 N   0  0  0  0  0  0  0  0  0  0  0  0
    9.0837   13.1520  -18.4209 C   0  0  0  0  0  0  0  0  0  0  0  0
    7.0492   13.8433  -17.4966 C   0  0  0  0  0  0  0  0  0  0  0  0
    7.0205   11.9763  -18.6799 C   0  0  0  0  0  0  0  0  0  0  0  0
    8.3723   12.0677  -18.9803 C   0  0  0  0  0  0  0  0  0  0  0  0
    8.6548   10.9805  -19.8618 C   0  0  0  0  0  0  0  0  0  0  0  0
    7.4980   10.2471  -20.0232 C   0  0  0  0  0  0  0  0  0  0  0  0
    8.3599   14.0663  -17.7133 N   0  0  0  0  0  0  0  0  0  0  0  0
    6.2988   12.8176  -17.9284 N   0  0  0  0  0  0  0  0  0  0  0  0
    6.5172   10.8593  -19.2881 N   0  0  0  0  0  0  0  0  0  0  0  0
    5.5538   10.5648  -19.2095 H   0  0  0  0  0  0  0  0  0  0  0  0
  1  2  1  0  0  0
  1  7  1  0  0  0
  1  9  1  0  0  0
  2  3  1  0  0  0
  3 14  1  0  0  0
  4 14  1  0  0  0
  4  5  1  0  0  0
  5  1  1  0  0  0
  6 14  1  0  0  0
  7 15  1  0  0  0
 17 22  2  0  0  0
 18 23  2  0  0  0
 19 20  1  0  0  0
 19 16  2  0  0  0
 21 24  1  0  0  0
  9 10  2  0  0  0
 11 12  2  0  0  0
 13  8  2  0  0  0
 15 16  1  0  0  0
 15  8  1  0  0  0
 24 18  1  0  0  0
 16 22  1  0  0  0
 17 23  1  0  0  0
 18 19  1  0  0  0
 20 21  2  0  0  0
  8  9  1  0  0  0
 10 11  1  0  0  0
 12 13  1  0  0  0
 24 25  1  0  0  0
M  END
> <minimizedAffinity>
-8.79101

$$$$
CHEMBL258838


 25 29  0  0  0  0  0  0  0  0999 V2000
   10.9477   13.7551  -16.1742 C   0  0  0  0  0  0  0  0  0  0  0  0
   10.7644   12.2476  -15.8753 C   0  0  0  0  0  0  0  0  0  0  0  0
    9.5832   11.6204  -16.6232 C   0  0  0  0  0  0  0  0  0  0  0  0
    8.8813   13.6815  -17.6820 C   0  0  0  0  0  0  0  0  0  0  0  0
    9.5961   14.3964  -16.5281 C   0  0  0  0  0  0  0  0  0  0  0  0
    8.3828   11.5624  -18.7128 C   0  0  0  0  0  0  0  0  0  0  0  0
   12.0179   13.9796  -17.3033 C   0  0  0  0  0  0  0  0  0  0  0  0
   12.7991   15.0480  -15.3971 C   0  0  0  0  0  0  0  0  0  0  0  0
   11.5903   14.4695  -15.0071 C   0  0  0  0  0  0  0  0  0  0  0  0
   11.1272   14.5648  -13.6977 C   0  0  0  0  0  0  0  0  0  0  0  0
   11.9136   15.2242  -12.7553 C   0  0  0  0  0  0  0  0  0  0  0  0
   13.1504   15.7615  -13.1250 C   0  0  0  0  0  0  0  0  0  0  0  0
   13.5984   15.6654  -14.4460 C   0  0  0  0  0  0  0  0  0  0  0  0
    9.3429   12.3025  -17.8930 N   0  0  0  0  0  0  0  0  0  0  0  0
   13.0616   14.8643  -16.7603 N   0  0  0  0  0  0  0  0  0  0  0  0
   14.1283   15.2415  -17.5678 C   0  0  0  0  0  0  0  0  0  0  0  0
   16.3650   15.8983  -17.7610 C   0  0  0  0  0  0  0  0  0  0  0  0
   15.1709   15.8762  -19.6212 C   0  0  0  0  0  0  0  0  0  0  0  0
   14.0366   15.4175  -18.9662 C   0  0  0  0  0  0  0  0  0  0  0  0
   13.0536   15.2072  -19.9801 C   0  0  0  0  0  0  0  0  0  0  0  0
   13.5962   15.5881  -21.1896 C   0  0  0  0  0  0  0  0  0  0  0  0
   15.3507   15.4464  -16.9983 N   0  0  0  0  0  0  0  0  0  0  0  0
   16.3626   16.1560  -19.0783 N   0  0  0  0  0  0  0  0  0  0  0  0
   14.8798   16.0038  -20.9516 N   0  0  0  0  0  0  0  0  0  0  0  0
   15.5406   16.3359  -21.6401 H   0  0  0  0  0  0  0  0  0  0  0  0
  1  2  1  0  0  0
  1  7  1  0  0  0
  1  9  1  0  0  0
  2  3  1  0  0  0
  3 14  1  0  0  0
  4 14  1  0  0  0
  4  5  1  0  0  0
  5  1  1  0  0  0
  6 14  1  0  0  0
  7 15  1  0  0  0
 17 22  2  0  0  0
 18 23  2  0  0  0
 19 20  1  0  0  0
 19 16  2  0  0  0
 21 24  1  0  0  0
  9 10  2  0  0  0
 11 12  2  0  0  0
 13  8  2  0  0  0
 15 16  1  0  0  0
 15  8  1  0  0  0
 24 18  1  0  0  0
 16 22  1  0  0  0
 17 23  1  0  0  0
 18 19  1  0  0  0
 20 21  2  0  0  0
  8  9  1  0  0  0
 10 11  1  0  0  0
 12 13  1  0  0  0
 24 25  1  0  0  0
M  END
> <minimizedAffinity>
-8.37456

$$$$
CHEMBL258838


 25 29  0  0  0  0  0  0  0  0999 V2000
   10.9778   13.7873  -17.7751 C   0  0  0  0  0  0  0  0  0  0  0  0
   10.7265   12.3084  -17.3940 C   0  0  0  0  0  0  0  0  0  0  0  0
    9.2399   11.9412  -17.3370 C   0  0  0  0  0  0  0  0  0  0  0  0
    8.4488   14.1685  -17.8614 C   0  0  0  0  0  0  0  0  0  0  0  0
    9.7977   14.6622  -17.3224 C   0  0  0  0  0  0  0  0  0  0  0  0
    7.0940   12.2487  -18.3912 C   0  0  0  0  0  0  0  0  0  0  0  0
   11.2601   13.9323  -19.3145 C   0  0  0  0  0  0  0  0  0  0  0  0
   13.1436   14.7006  -18.1976 C   0  0  0  0  0  0  0  0  0  0  0  0
   12.2753   14.2908  -17.1846 C   0  0  0  0  0  0  0  0  0  0  0  0
   12.6433   14.3491  -15.8433 C   0  0  0  0  0  0  0  0  0  0  0  0
   13.9230   14.7944  -15.5184 C   0  0  0  0  0  0  0  0  0  0  0  0
   14.8179   15.1575  -16.5294 C   0  0  0  0  0  0  0  0  0  0  0  0
   14.4311   15.1019  -17.8719 C   0  0  0  0  0  0  0  0  0  0  0  0
    8.4610   12.7561  -18.2668 N   0  0  0  0  0  0  0  0  0  0  0  0
   12.5670   14.5918  -19.4691 N   0  0  0  0  0  0  0  0  0  0  0  0
   13.0522   14.8609  -20.7436 C   0  0  0  0  0  0  0  0  0  0  0  0
   13.6395   16.4277  -22.3781 C   0  0  0  0  0  0  0  0  0  0  0  0
   13.7655   14.2968  -22.9525 C   0  0  0  0  0  0  0  0  0  0  0  0
   13.3691   13.8656  -21.6943 C   0  0  0  0  0  0  0  0  0  0  0  0
   13.4422   12.4400  -21.7249 C   0  0  0  0  0  0  0  0  0  0  0  0
   13.8231   12.0568  -22.9939 C   0  0  0  0  0  0  0  0  0  0  0  0
   13.2552   16.1574  -21.1156 N   0  0  0  0  0  0  0  0  0  0  0  0
   13.9032   15.5619  -23.3693 N   0  0  0  0  0  0  0  0  0  0  0  0
   14.0037   13.1975  -23.7309 N   0  0  0  0  0  0  0  0  0  0  0  0
   14.2924   13.2480  -24.6979 H   0  0  0  0  0  0  0  0  0  0  0  0
  1  2  1  0  0  0
  1  7  1  0  0  0
  1  9  1  0  0  0
  2  3  1  0  0  0
  3 14  1  0  0  0
  4 14  1  0  0  0
  4  5  1  0  0  0
  5  1  1  0  0  0
  6 14  1  0  0  0
  7 15  1  0  0  0
 17 22  2  0  0  0
 18 23  2  0  0  0
 19 20  1  0  0  0
 19 16  2  0  0  0
 21 24  1  0  0  0
  9 10  2  0  0  0
 11 12  2  0  0  0
 13  8  2  0  0  0
 15 16  1  0  0  0
 15  8  1  0  0  0
 24 18  1  0  0  0
 16 22  1  0  0  0
 17 23  1  0  0  0
 18 19  1  0  0  0
 20 21  2  0  0  0
  8  9  1  0  0  0
 10 11  1  0  0  0
 12 13  1  0  0  0
 24 25  1  0  0  0
M  END
> <minimizedAffinity>
-8.27488

$$$$
CHEMBL258838


 25 29  0  0  0  0  0  0  0  0999 V2000
   12.4520   13.5945  -18.7014 C   0  0  0  0  0  0  0  0  0  0  0  0
   13.2257   12.5229  -19.5067 C   0  0  0  0  0  0  0  0  0  0  0  0
   13.3397   12.8510  -20.9990 C   0  0  0  0  0  0  0  0  0  0  0  0
   12.0544   14.8985  -20.8671 C   0  0  0  0  0  0  0  0  0  0  0  0
   11.4254   14.3000  -19.6023 C   0  0  0  0  0  0  0  0  0  0  0  0
   13.6959   14.6118  -22.6063 C   0  0  0  0  0  0  0  0  0  0  0  0
   13.4396   14.6140  -18.0262 C   0  0  0  0  0  0  0  0  0  0  0  0
   12.2515   13.5803  -16.3217 C   0  0  0  0  0  0  0  0  0  0  0  0
   11.7764   12.9878  -17.4927 C   0  0  0  0  0  0  0  0  0  0  0  0
   10.8288   11.9685  -17.4595 C   0  0  0  0  0  0  0  0  0  0  0  0
   10.3783   11.5127  -16.2223 C   0  0  0  0  0  0  0  0  0  0  0  0
   10.8874   12.0643  -15.0427 C   0  0  0  0  0  0  0  0  0  0  0  0
   11.8324   13.0936  -15.0920 C   0  0  0  0  0  0  0  0  0  0  0  0
   13.3468   14.2953  -21.2209 N   0  0  0  0  0  0  0  0  0  0  0  0
   13.1714   14.6044  -16.5788 N   0  0  0  0  0  0  0  0  0  0  0  0
   13.9010   15.4401  -15.7412 C   0  0  0  0  0  0  0  0  0  0  0  0
   15.7089   16.8921  -15.4342 C   0  0  0  0  0  0  0  0  0  0  0  0
   14.4946   16.4243  -13.6472 C   0  0  0  0  0  0  0  0  0  0  0  0
   13.6241   15.6188  -14.3679 C   0  0  0  0  0  0  0  0  0  0  0  0
   12.6108   15.2115  -13.4480 C   0  0  0  0  0  0  0  0  0  0  0  0
   12.9222   15.7308  -12.2088 C   0  0  0  0  0  0  0  0  0  0  0  0
   14.9438   16.1508  -16.2587 N   0  0  0  0  0  0  0  0  0  0  0  0
   15.5684   17.0757  -14.1120 N   0  0  0  0  0  0  0  0  0  0  0  0
   14.0770   16.4553  -12.3450 N   0  0  0  0  0  0  0  0  0  0  0  0
   14.5554   16.9651  -11.6155 H   0  0  0  0  0  0  0  0  0  0  0  0
  1  2  1  0  0  0
  1  7  1  0  0  0
  1  9  1  0  0  0
  2  3  1  0  0  0
  3 14  1  0  0  0
  4 14  1  0  0  0
  4  5  1  0  0  0
  5  1  1  0  0  0
  6 14  1  0  0  0
  7 15  1  0  0  0
 17 22  2  0  0  0
 18 23  2  0  0  0
 19 20  1  0  0  0
 19 16  2  0  0  0
 21 24  1  0  0  0
  9 10  2  0  0  0
 11 12  2  0  0  0
 13  8  2  0  0  0
 15 16  1  0  0  0
 15  8  1  0  0  0
 24 18  1  0  0  0
 16 22  1  0  0  0
 17 23  1  0  0  0
 18 19  1  0  0  0
 20 21  2  0  0  0
  8  9  1  0  0  0
 10 11  1  0  0  0
 12 13  1  0  0  0
 24 25  1  0  0  0
M  END
> <minimizedAffinity>
-8.26802

$$$$
CHEMBL258838


 25 29  0  0  0  0  0  0  0  0999 V2000
   17.0457   17.3431  -17.2234 C   0  0  0  0  0  0  0  0  0  0  0  0
   17.0060   18.8294  -17.6533 C   0  0  0  0  0  0  0  0  0  0  0  0
   18.2092   19.2465  -18.5054 C   0  0  0  0  0  0  0  0  0  0  0  0
   19.2991   17.0867  -18.4087 C   0  0  0  0  0  0  0  0  0  0  0  0
   18.5004   16.8571  -17.1191 C   0  0  0  0  0  0  0  0  0  0  0  0
   19.7053   18.5633  -20.2678 C   0  0  0  0  0  0  0  0  0  0  0  0
   16.1970   16.4511  -18.2005 C   0  0  0  0  0  0  0  0  0  0  0  0
   15.2567   16.2399  -16.0894 C   0  0  0  0  0  0  0  0  0  0  0  0
   16.3156   17.1326  -15.9164 C   0  0  0  0  0  0  0  0  0  0  0  0
   16.5773   17.7203  -14.6819 C   0  0  0  0  0  0  0  0  0  0  0  0
   15.7348   17.4316  -13.6103 C   0  0  0  0  0  0  0  0  0  0  0  0
   14.6406   16.5793  -13.7872 C   0  0  0  0  0  0  0  0  0  0  0  0
   14.3954   15.9895  -15.0310 C   0  0  0  0  0  0  0  0  0  0  0  0
   18.7207   18.1184  -19.2807 N   0  0  0  0  0  0  0  0  0  0  0  0
   15.1901   15.7401  -17.3958 N   0  0  0  0  0  0  0  0  0  0  0  0
   14.3124   14.8601  -18.0183 C   0  0  0  0  0  0  0  0  0  0  0  0
   13.1752   14.1902  -19.9495 C   0  0  0  0  0  0  0  0  0  0  0  0
   12.7247   13.0769  -18.0936 C   0  0  0  0  0  0  0  0  0  0  0  0
   13.6305   13.8197  -17.3494 C   0  0  0  0  0  0  0  0  0  0  0  0
   13.6330   13.2443  -16.0427 C   0  0  0  0  0  0  0  0  0  0  0  0
   12.7066   12.2227  -16.0217 C   0  0  0  0  0  0  0  0  0  0  0  0
   14.0914   14.9817  -19.3588 N   0  0  0  0  0  0  0  0  0  0  0  0
   12.4326   13.2206  -19.3926 N   0  0  0  0  0  0  0  0  0  0  0  0
   12.1548   12.1425  -17.2732 N   0  0  0  0  0  0  0  0  0  0  0  0
   11.4496   11.4858  -17.5773 H   0  0  0  0  0  0  0  0  0  0  0  0
  1  2  1  0  0  0
  1  7  1  0  0  0
  1  9  1  0  0  0
  2  3  1  0  0  0
  3 14  1  0  0  0
  4 14  1  0  0  0
  4  5  1  0  0  0
  5  1  1  0  0  0
  6 14  1  0  0  0
  7 15  1  0  0  0
 17 22  2  0  0  0
 18 23  2  0  0  0
 19 20  1  0  0  0
 19 16  2  0  0  0
 21 24  1  0  0  0
  9 10  2  0  0  0
 11 12  2  0  0  0
 13  8  2  0  0  0
 15 16  1  0  0  0
 15  8  1  0  0  0
 24 18  1  0  0  0
 16 22  1  0  0  0
 17 23  1  0  0  0
 18 19  1  0  0  0
 20 21  2  0  0  0
  8  9  1  0  0  0
 10 11  1  0  0  0
 12 13  1  0  0  0
 24 25  1  0  0  0
M  END
> <minimizedAffinity>
-8.22394

$$$$
CHEMBL258838


 25 29  0  0  0  0  0  0  0  0999 V2000
   11.9176   14.2224  -17.0597 C   0  0  0  0  0  0  0  0  0  0  0  0
   11.3877   15.4025  -16.2100 C   0  0  0  0  0  0  0  0  0  0  0  0
   12.4066   15.9202  -15.1893 C   0  0  0  0  0  0  0  0  0  0  0  0
   14.1108   14.2921  -15.7429 C   0  0  0  0  0  0  0  0  0  0  0  0
   12.9616   13.4205  -16.2657 C   0  0  0  0  0  0  0  0  0  0  0  0
   14.7334   16.4245  -14.8118 C   0  0  0  0  0  0  0  0  0  0  0  0
   12.4872   14.7288  -18.4343 C   0  0  0  0  0  0  0  0  0  0  0  0
   10.7364   13.2818  -18.9099 C   0  0  0  0  0  0  0  0  0  0  0  0
   10.7882   13.3270  -17.5159 C   0  0  0  0  0  0  0  0  0  0  0  0
    9.8720   12.6323  -16.7311 C   0  0  0  0  0  0  0  0  0  0  0  0
    8.8628   11.9078  -17.3620 C   0  0  0  0  0  0  0  0  0  0  0  0
    8.7717   11.8993  -18.7572 C   0  0  0  0  0  0  0  0  0  0  0  0
    9.7044   12.5948  -19.5326 C   0  0  0  0  0  0  0  0  0  0  0  0
   13.7742   15.7203  -15.6636 N   0  0  0  0  0  0  0  0  0  0  0  0
   11.7662   14.0212  -19.5049 N   0  0  0  0  0  0  0  0  0  0  0  0
   12.0928   14.2717  -20.8326 C   0  0  0  0  0  0  0  0  0  0  0  0
   11.8762   15.6183  -22.7329 C   0  0  0  0  0  0  0  0  0  0  0  0
   13.0583   13.7639  -22.9577 C   0  0  0  0  0  0  0  0  0  0  0  0
   12.8896   13.4160  -21.6249 C   0  0  0  0  0  0  0  0  0  0  0  0
   13.6600   12.2304  -21.4262 C   0  0  0  0  0  0  0  0  0  0  0  0
   14.2189   11.8739  -22.6357 C   0  0  0  0  0  0  0  0  0  0  0  0
   11.6382   15.4143  -21.4228 N   0  0  0  0  0  0  0  0  0  0  0  0
   12.5639   14.8399  -23.5831 N   0  0  0  0  0  0  0  0  0  0  0  0
   13.8330   12.8101  -23.5586 N   0  0  0  0  0  0  0  0  0  0  0  0
   14.0880   12.8299  -24.5362 H   0  0  0  0  0  0  0  0  0  0  0  0
  1  2  1  0  0  0
  1  7  1  0  0  0
  1  9  1  0  0  0
  2  3  1  0  0  0
  3 14  1  0  0  0
  4 14  1  0  0  0
  4  5  1  0  0  0
  5  1  1  0  0  0
  6 14  1  0  0  0
  7 15  1  0  0  0
 17 22  2  0  0  0
 18 23  2  0  0  0
 19 20  1  0  0  0
 19 16  2  0  0  0
 21 24  1  0  0  0
  9 10  2  0  0  0
 11 12  2  0  0  0
 13  8  2  0  0  0
 15 16  1  0  0  0
 15  8  1  0  0  0
 24 18  1  0  0  0
 16 22  1  0  0  0
 17 23  1  0  0  0
 18 19  1  0  0  0
 20 21  2  0  0  0
  8  9  1  0  0  0
 10 11  1  0  0  0
 12 13  1  0  0  0
 24 25  1  0  0  0
M  END
> <minimizedAffinity>
-8.11800

$$$$
CHEMBL4448573


 32 36  0  0  0  0  0  0  0  0999 V2000
   12.9612   12.1681  -20.5945 C   0  0  0  0  0  0  0  0  0  0  0  0
   13.3855   13.5337  -21.1410 C   0  0  0  0  0  0  0  0  0  0  0  0
   12.8008   14.7075  -20.3177 C   0  0  0  0  0  0  0  0  0  0  0  0
   11.2703   14.5138  -20.1276 C   0  0  0  0  0  0  0  0  0  0  0  0
   11.4399   12.0845  -20.5240 C   0  0  0  0  0  0  0  0  0  0  0  0
   10.9570   13.1511  -19.6651 N   0  0  0  0  0  0  0  0  0  0  0  0
   10.1845   12.9687  -18.5336 C   0  0  0  0  0  0  0  0  0  0  0  0
    8.1252   13.3979  -17.4712 C   0  0  0  0  0  0  0  0  0  0  0  0
    9.6370   12.3067  -16.2949 C   0  0  0  0  0  0  0  0  0  0  0  0
   10.5782   12.3398  -17.3203 C   0  0  0  0  0  0  0  0  0  0  0  0
   11.7469   11.7218  -16.7699 C   0  0  0  0  0  0  0  0  0  0  0  0
   11.4617   11.2953  -15.4893 C   0  0  0  0  0  0  0  0  0  0  0  0
    8.9219   13.4947  -18.5488 N   0  0  0  0  0  0  0  0  0  0  0  0
    8.3982   12.8141  -16.3010 N   0  0  0  0  0  0  0  0  0  0  0  0
   10.1744   11.6624  -15.2157 N   0  0  0  0  0  0  0  0  0  0  0  0
    9.6758   11.5118  -14.3510 H   0  0  0  0  0  0  0  0  0  0  0  0
   13.6262   14.9838  -19.0590 C   0  0  0  0  0  0  0  0  0  0  0  0
   13.0336   14.7506  -17.7995 C   0  0  0  0  0  0  0  0  0  0  0  0
   13.7217   14.9859  -16.6059 C   0  0  0  0  0  0  0  0  0  0  0  0
   15.0416   15.4419  -16.6691 C   0  0  0  0  0  0  0  0  0  0  0  0
   15.6548   15.6574  -17.9007 C   0  0  0  0  0  0  0  0  0  0  0  0
   14.9517   15.4284  -19.0829 C   0  0  0  0  0  0  0  0  0  0  0  0
   11.8880   15.0965  -14.8968 C   0  0  0  0  0  0  0  0  0  0  0  0
   13.1715   14.7938  -15.3187 N   0  0  0  0  0  0  0  0  0  0  0  0
   11.0102   15.5956  -15.5957 O   0  0  0  0  0  0  0  0  0  0  0  0
   13.8127   14.3989  -14.6514 H   0  0  0  0  0  0  0  0  0  0  0  0
   11.5508   14.7889  -13.4635 C   0  0  0  0  0  0  0  0  0  0  0  0
   10.3870   14.1231  -13.0502 C   0  0  0  0  0  0  0  0  0  0  0  0
   10.1535   13.8807  -11.6913 C   0  0  0  0  0  0  0  0  0  0  0  0
   11.0742   14.2979  -10.7330 C   0  0  0  0  0  0  0  0  0  0  0  0
   12.2330   14.9590  -11.1277 C   0  0  0  0  0  0  0  0  0  0  0  0
   12.4688   15.2018  -12.4826 C   0  0  0  0  0  0  0  0  0  0  0  0
  1  2  1  0  0  0
  2  3  1  0  0  0
  3  4  1  0  0  0
  3 17  1  0  0  0
  4  6  1  0  0  0
  5  6  1  0  0  0
  5  1  1  0  0  0
  8 13  2  0  0  0
  9 14  2  0  0  0
 10 11  1  0  0  0
 10  7  2  0  0  0
 12 15  1  0  0  0
 18 19  2  0  0  0
 19 24  1  0  0  0
 20 21  2  0  0  0
 22 17  2  0  0  0
 23 27  1  0  0  0
 28 29  2  0  0  0
 30 31  2  0  0  0
 32 27  2  0  0  0
  6  7  1  0  0  0
 15  9  1  0  0  0
 24 23  1  0  0  0
  7 13  1  0  0  0
  8 14  1  0  0  0
  9 10  1  0  0  0
 11 12  2  0  0  0
 17 18  1  0  0  0
 19 20  1  0  0  0
 21 22  1  0  0  0
 23 25  2  0  0  0
 27 28  1  0  0  0
 29 30  1  0  0  0
 31 32  1  0  0  0
 15 16  1  0  0  0
 24 26  1  0  0  0
M  END
> <minimizedAffinity>
-9.47818

$$$$
CHEMBL4448573


 32 36  0  0  0  0  0  0  0  0999 V2000
   10.4997   12.1211  -15.8121 C   0  0  0  0  0  0  0  0  0  0  0  0
    9.6008   12.6126  -16.9496 C   0  0  0  0  0  0  0  0  0  0  0  0
   10.0598   13.9778  -17.5179 C   0  0  0  0  0  0  0  0  0  0  0  0
   10.2792   14.9902  -16.3590 C   0  0  0  0  0  0  0  0  0  0  0  0
   10.5737   13.1760  -14.7130 C   0  0  0  0  0  0  0  0  0  0  0  0
   11.0979   14.4037  -15.2843 N   0  0  0  0  0  0  0  0  0  0  0  0
   12.2269   15.0655  -14.8398 C   0  0  0  0  0  0  0  0  0  0  0  0
   14.2679   16.0837  -15.4326 C   0  0  0  0  0  0  0  0  0  0  0  0
   13.8045   15.9755  -13.2800 C   0  0  0  0  0  0  0  0  0  0  0  0
   12.5931   15.3222  -13.4897 C   0  0  0  0  0  0  0  0  0  0  0  0
   12.0834   15.0577  -12.1779 C   0  0  0  0  0  0  0  0  0  0  0  0
   12.9490   15.5969  -11.2488 C   0  0  0  0  0  0  0  0  0  0  0  0
   13.1249   15.4731  -15.7878 N   0  0  0  0  0  0  0  0  0  0  0  0
   14.6878   16.3823  -14.2001 N   0  0  0  0  0  0  0  0  0  0  0  0
   13.9922   16.1487  -11.9371 N   0  0  0  0  0  0  0  0  0  0  0  0
   14.8015   16.6041  -11.5413 H   0  0  0  0  0  0  0  0  0  0  0  0
   11.2016   13.8180  -18.5242 C   0  0  0  0  0  0  0  0  0  0  0  0
   12.2652   14.7451  -18.4899 C   0  0  0  0  0  0  0  0  0  0  0  0
   13.3394   14.6683  -19.3808 C   0  0  0  0  0  0  0  0  0  0  0  0
   13.3666   13.6273  -20.3134 C   0  0  0  0  0  0  0  0  0  0  0  0
   12.3398   12.6874  -20.3510 C   0  0  0  0  0  0  0  0  0  0  0  0
   11.2692   12.7836  -19.4626 C   0  0  0  0  0  0  0  0  0  0  0  0
   15.6058   15.5044  -18.7023 C   0  0  0  0  0  0  0  0  0  0  0  0
   14.4174   15.5813  -19.4086 N   0  0  0  0  0  0  0  0  0  0  0  0
   15.9096   14.6081  -17.9196 O   0  0  0  0  0  0  0  0  0  0  0  0
   14.2715   16.3726  -20.0128 H   0  0  0  0  0  0  0  0  0  0  0  0
   16.5983   16.6145  -18.9141 C   0  0  0  0  0  0  0  0  0  0  0  0
   16.5054   17.5748  -19.9328 C   0  0  0  0  0  0  0  0  0  0  0  0
   17.4786   18.5736  -20.0566 C   0  0  0  0  0  0  0  0  0  0  0  0
   18.5513   18.6256  -19.1695 C   0  0  0  0  0  0  0  0  0  0  0  0
   18.6567   17.6805  -18.1542 C   0  0  0  0  0  0  0  0  0  0  0  0
   17.6871   16.6833  -18.0279 C   0  0  0  0  0  0  0  0  0  0  0  0
  1  2  1  0  0  0
  2  3  1  0  0  0
  3  4  1  0  0  0
  3 17  1  0  0  0
  4  6  1  0  0  0
  5  6  1  0  0  0
  5  1  1  0  0  0
  8 13  2  0  0  0
  9 14  2  0  0  0
 10 11  1  0  0  0
 10  7  2  0  0  0
 12 15  1  0  0  0
 18 19  2  0  0  0
 19 24  1  0  0  0
 20 21  2  0  0  0
 22 17  2  0  0  0
 23 27  1  0  0  0
 28 29  2  0  0  0
 30 31  2  0  0  0
 32 27  2  0  0  0
  6  7  1  0  0  0
 15  9  1  0  0  0
 24 23  1  0  0  0
  7 13  1  0  0  0
  8 14  1  0  0  0
  9 10  1  0  0  0
 11 12  2  0  0  0
 17 18  1  0  0  0
 19 20  1  0  0  0
 21 22  1  0  0  0
 23 25  2  0  0  0
 27 28  1  0  0  0
 29 30  1  0  0  0
 31 32  1  0  0  0
 15 16  1  0  0  0
 24 26  1  0  0  0
M  END
> <minimizedAffinity>
-9.28282

$$$$
CHEMBL4448573


 32 36  0  0  0  0  0  0  0  0999 V2000
    8.6688   13.6565  -16.9154 C   0  0  0  0  0  0  0  0  0  0  0  0
    8.6914   12.7140  -15.7093 C   0  0  0  0  0  0  0  0  0  0  0  0
   10.1308   12.3399  -15.2784 C   0  0  0  0  0  0  0  0  0  0  0  0
   10.9481   11.8618  -16.5110 C   0  0  0  0  0  0  0  0  0  0  0  0
    9.4454   13.0393  -18.0740 C   0  0  0  0  0  0  0  0  0  0  0  0
   10.8099   12.7976  -17.6400 N   0  0  0  0  0  0  0  0  0  0  0  0
   11.9384   13.3091  -18.2523 C   0  0  0  0  0  0  0  0  0  0  0  0
   13.8007   14.7401  -18.0580 C   0  0  0  0  0  0  0  0  0  0  0  0
   13.5168   13.7443  -20.0042 C   0  0  0  0  0  0  0  0  0  0  0  0
   12.3598   13.0883  -19.5926 C   0  0  0  0  0  0  0  0  0  0  0  0
   11.9036   12.3808  -20.7511 C   0  0  0  0  0  0  0  0  0  0  0  0
   12.8057   12.5792  -21.7758 C   0  0  0  0  0  0  0  0  0  0  0  0
   12.7118   14.1664  -17.5189 N   0  0  0  0  0  0  0  0  0  0  0  0
   14.2829   14.5812  -19.2936 N   0  0  0  0  0  0  0  0  0  0  0  0
   13.7793   13.4139  -21.3045 N   0  0  0  0  0  0  0  0  0  0  0  0
   14.5728   13.7657  -21.8199 H   0  0  0  0  0  0  0  0  0  0  0  0
   10.7627   13.4277  -14.4071 C   0  0  0  0  0  0  0  0  0  0  0  0
   11.8596   14.1513  -14.9219 C   0  0  0  0  0  0  0  0  0  0  0  0
   12.4933   15.1545  -14.1833 C   0  0  0  0  0  0  0  0  0  0  0  0
   12.0064   15.4611  -12.9094 C   0  0  0  0  0  0  0  0  0  0  0  0
   10.9109   14.7763  -12.3896 C   0  0  0  0  0  0  0  0  0  0  0  0
   10.2960   13.7704  -13.1343 C   0  0  0  0  0  0  0  0  0  0  0  0
   14.5862   16.5024  -13.8689 C   0  0  0  0  0  0  0  0  0  0  0  0
   13.6089   15.8933  -14.6375 N   0  0  0  0  0  0  0  0  0  0  0  0
   14.6304   16.4964  -12.6416 O   0  0  0  0  0  0  0  0  0  0  0  0
   13.6677   15.9769  -15.6385 H   0  0  0  0  0  0  0  0  0  0  0  0
   15.6768   17.2316  -14.6047 C   0  0  0  0  0  0  0  0  0  0  0  0
   16.7617   17.8678  -13.9828 C   0  0  0  0  0  0  0  0  0  0  0  0
   17.7315   18.5260  -14.7485 C   0  0  0  0  0  0  0  0  0  0  0  0
   17.6306   18.5572  -16.1374 C   0  0  0  0  0  0  0  0  0  0  0  0
   16.5607   17.9305  -16.7682 C   0  0  0  0  0  0  0  0  0  0  0  0
   15.5919   17.2727  -16.0071 C   0  0  0  0  0  0  0  0  0  0  0  0
  1  2  1  0  0  0
  2  3  1  0  0  0
  3  4  1  0  0  0
  3 17  1  0  0  0
  4  6  1  0  0  0
  5  6  1  0  0  0
  5  1  1  0  0  0
  8 13  2  0  0  0
  9 14  2  0  0  0
 10 11  1  0  0  0
 10  7  2  0  0  0
 12 15  1  0  0  0
 18 19  2  0  0  0
 19 24  1  0  0  0
 20 21  2  0  0  0
 22 17  2  0  0  0
 23 27  1  0  0  0
 28 29  2  0  0  0
 30 31  2  0  0  0
 32 27  2  0  0  0
  6  7  1  0  0  0
 15  9  1  0  0  0
 24 23  1  0  0  0
  7 13  1  0  0  0
  8 14  1  0  0  0
  9 10  1  0  0  0
 11 12  2  0  0  0
 17 18  1  0  0  0
 19 20  1  0  0  0
 21 22  1  0  0  0
 23 25  2  0  0  0
 27 28  1  0  0  0
 29 30  1  0  0  0
 31 32  1  0  0  0
 15 16  1  0  0  0
 24 26  1  0  0  0
M  END
> <minimizedAffinity>
-9.25056

$$$$
CHEMBL4448573


 32 36  0  0  0  0  0  0  0  0999 V2000
   11.7925   14.7848  -21.5040 C   0  0  0  0  0  0  0  0  0  0  0  0
   11.4294   13.3512  -21.8999 C   0  0  0  0  0  0  0  0  0  0  0  0
   11.7716   12.3269  -20.7904 C   0  0  0  0  0  0  0  0  0  0  0  0
   13.2350   12.5331  -20.3086 C   0  0  0  0  0  0  0  0  0  0  0  0
   13.2670   14.8624  -21.1215 C   0  0  0  0  0  0  0  0  0  0  0  0
   13.5073   13.9509  -20.0170 N   0  0  0  0  0  0  0  0  0  0  0  0
   14.0315   14.3131  -18.7905 C   0  0  0  0  0  0  0  0  0  0  0  0
   13.9829   13.9803  -16.4580 C   0  0  0  0  0  0  0  0  0  0  0  0
   15.3322   15.5556  -17.2049 C   0  0  0  0  0  0  0  0  0  0  0  0
   14.9775   15.3438  -18.5344 C   0  0  0  0  0  0  0  0  0  0  0  0
   15.7001   16.3355  -19.2727 C   0  0  0  0  0  0  0  0  0  0  0  0
   16.4891   17.0526  -18.3973 C   0  0  0  0  0  0  0  0  0  0  0  0
   13.5556   13.6552  -17.6898 N   0  0  0  0  0  0  0  0  0  0  0  0
   14.8761   14.9149  -16.1215 N   0  0  0  0  0  0  0  0  0  0  0  0
   16.2502   16.5666  -17.1429 N   0  0  0  0  0  0  0  0  0  0  0  0
   16.6592   16.8964  -16.2810 H   0  0  0  0  0  0  0  0  0  0  0  0
   10.6873   12.2759  -19.7117 C   0  0  0  0  0  0  0  0  0  0  0  0
   11.0154   12.6980  -18.4055 C   0  0  0  0  0  0  0  0  0  0  0  0
   10.0810   12.6741  -17.3663 C   0  0  0  0  0  0  0  0  0  0  0  0
    8.7804   12.2417  -17.6412 C   0  0  0  0  0  0  0  0  0  0  0  0
    8.4273   11.8421  -18.9276 C   0  0  0  0  0  0  0  0  0  0  0  0
    9.3736   11.8613  -19.9516 C   0  0  0  0  0  0  0  0  0  0  0  0
   10.6153   14.3376  -15.5655 C   0  0  0  0  0  0  0  0  0  0  0  0
   10.3596   13.0609  -16.0362 N   0  0  0  0  0  0  0  0  0  0  0  0
   10.6436   15.3551  -16.2526 O   0  0  0  0  0  0  0  0  0  0  0  0
   10.3766   12.2979  -15.3804 H   0  0  0  0  0  0  0  0  0  0  0  0
   10.8823   14.4807  -14.0921 C   0  0  0  0  0  0  0  0  0  0  0  0
   11.9635   15.1916  -13.5497 C   0  0  0  0  0  0  0  0  0  0  0  0
   12.1357   15.2706  -12.1626 C   0  0  0  0  0  0  0  0  0  0  0  0
   11.2353   14.6439  -11.3042 C   0  0  0  0  0  0  0  0  0  0  0  0
   10.1582   13.9357  -11.8273 C   0  0  0  0  0  0  0  0  0  0  0  0
    9.9836   13.8555  -13.2106 C   0  0  0  0  0  0  0  0  0  0  0  0
  1  2  1  0  0  0
  2  3  1  0  0  0
  3  4  1  0  0  0
  3 17  1  0  0  0
  4  6  1  0  0  0
  5  6  1  0  0  0
  5  1  1  0  0  0
  8 13  2  0  0  0
  9 14  2  0  0  0
 10 11  1  0  0  0
 10  7  2  0  0  0
 12 15  1  0  0  0
 18 19  2  0  0  0
 19 24  1  0  0  0
 20 21  2  0  0  0
 22 17  2  0  0  0
 23 27  1  0  0  0
 28 29  2  0  0  0
 30 31  2  0  0  0
 32 27  2  0  0  0
  6  7  1  0  0  0
 15  9  1  0  0  0
 24 23  1  0  0  0
  7 13  1  0  0  0
  8 14  1  0  0  0
  9 10  1  0  0  0
 11 12  2  0  0  0
 17 18  1  0  0  0
 19 20  1  0  0  0
 21 22  1  0  0  0
 23 25  2  0  0  0
 27 28  1  0  0  0
 29 30  1  0  0  0
 31 32  1  0  0  0
 15 16  1  0  0  0
 24 26  1  0  0  0
M  END
> <minimizedAffinity>
-8.80962

$$$$
CHEMBL4448573


 32 36  0  0  0  0  0  0  0  0999 V2000
   18.3121   20.1825  -18.2837 C   0  0  0  0  0  0  0  0  0  0  0  0
   17.0212   19.4144  -18.5786 C   0  0  0  0  0  0  0  0  0  0  0  0
   17.0987   17.9342  -18.1307 C   0  0  0  0  0  0  0  0  0  0  0  0
   18.4000   17.2810  -18.6745 C   0  0  0  0  0  0  0  0  0  0  0  0
   19.4990   19.4752  -18.9298 C   0  0  0  0  0  0  0  0  0  0  0  0
   19.5761   18.1246  -18.4021 N   0  0  0  0  0  0  0  0  0  0  0  0
   20.6754   17.5865  -17.7599 C   0  0  0  0  0  0  0  0  0  0  0  0
   22.2218   15.8107  -17.6674 C   0  0  0  0  0  0  0  0  0  0  0  0
   22.3852   17.3478  -16.0957 C   0  0  0  0  0  0  0  0  0  0  0  0
   21.3107   18.0834  -16.5884 C   0  0  0  0  0  0  0  0  0  0  0  0
   21.1472   19.1644  -15.6636 C   0  0  0  0  0  0  0  0  0  0  0  0
   22.1363   19.0817  -14.7054 C   0  0  0  0  0  0  0  0  0  0  0  0
   21.1820   16.4194  -18.2622 N   0  0  0  0  0  0  0  0  0  0  0  0
   22.8913   16.2077  -16.5818 N   0  0  0  0  0  0  0  0  0  0  0  0
   22.8785   17.9685  -14.9821 N   0  0  0  0  0  0  0  0  0  0  0  0
   23.6645   17.6215  -14.4523 H   0  0  0  0  0  0  0  0  0  0  0  0
   16.8182   17.7793  -16.6343 C   0  0  0  0  0  0  0  0  0  0  0  0
   15.6260   17.1383  -16.2346 C   0  0  0  0  0  0  0  0  0  0  0  0
   15.2976   16.9658  -14.8870 C   0  0  0  0  0  0  0  0  0  0  0  0
   16.1910   17.4216  -13.9133 C   0  0  0  0  0  0  0  0  0  0  0  0
   17.3842   18.0365  -14.2839 C   0  0  0  0  0  0  0  0  0  0  0  0
   17.6929   18.2112  -15.6325 C   0  0  0  0  0  0  0  0  0  0  0  0
   13.5564   15.1593  -14.8574 C   0  0  0  0  0  0  0  0  0  0  0  0
   14.1086   16.3547  -14.4294 N   0  0  0  0  0  0  0  0  0  0  0  0
   14.0272   14.4309  -15.7269 O   0  0  0  0  0  0  0  0  0  0  0  0
   13.6251   16.8761  -13.7176 H   0  0  0  0  0  0  0  0  0  0  0  0
   12.2739   14.7267  -14.2013 C   0  0  0  0  0  0  0  0  0  0  0  0
   11.2645   13.9944  -14.8441 C   0  0  0  0  0  0  0  0  0  0  0  0
   10.1000   13.6358  -14.1547 C   0  0  0  0  0  0  0  0  0  0  0  0
    9.9296   14.0024  -12.8217 C   0  0  0  0  0  0  0  0  0  0  0  0
   10.9219   14.7283  -12.1708 C   0  0  0  0  0  0  0  0  0  0  0  0
   12.0848   15.0870  -12.8559 C   0  0  0  0  0  0  0  0  0  0  0  0
  1  2  1  0  0  0
  2  3  1  0  0  0
  3  4  1  0  0  0
  3 17  1  0  0  0
  4  6  1  0  0  0
  5  6  1  0  0  0
  5  1  1  0  0  0
  8 13  2  0  0  0
  9 14  2  0  0  0
 10 11  1  0  0  0
 10  7  2  0  0  0
 12 15  1  0  0  0
 18 19  2  0  0  0
 19 24  1  0  0  0
 20 21  2  0  0  0
 22 17  2  0  0  0
 23 27  1  0  0  0
 28 29  2  0  0  0
 30 31  2  0  0  0
 32 27  2  0  0  0
  6  7  1  0  0  0
 15  9  1  0  0  0
 24 23  1  0  0  0
  7 13  1  0  0  0
  8 14  1  0  0  0
  9 10  1  0  0  0
 11 12  2  0  0  0
 17 18  1  0  0  0
 19 20  1  0  0  0
 21 22  1  0  0  0
 23 25  2  0  0  0
 27 28  1  0  0  0
 29 30  1  0  0  0
 31 32  1  0  0  0
 15 16  1  0  0  0
 24 26  1  0  0  0
M  END
> <minimizedAffinity>
-8.72985

$$$$
CHEMBL4448573


 32 36  0  0  0  0  0  0  0  0999 V2000
    8.9332   13.2081  -16.3660 C   0  0  0  0  0  0  0  0  0  0  0  0
    9.6871   12.4932  -15.2416 C   0  0  0  0  0  0  0  0  0  0  0  0
   11.2126   12.4310  -15.4992 C   0  0  0  0  0  0  0  0  0  0  0  0
   11.4891   11.8938  -16.9313 C   0  0  0  0  0  0  0  0  0  0  0  0
    9.2369   12.5411  -17.7036 C   0  0  0  0  0  0  0  0  0  0  0  0
   10.6697   12.5962  -17.9335 N   0  0  0  0  0  0  0  0  0  0  0  0
   11.2738   13.1741  -19.0342 C   0  0  0  0  0  0  0  0  0  0  0  0
   12.5640   14.9696  -19.8497 C   0  0  0  0  0  0  0  0  0  0  0  0
   11.8553   13.5046  -21.3368 C   0  0  0  0  0  0  0  0  0  0  0  0
   11.1910   12.7361  -20.3847 C   0  0  0  0  0  0  0  0  0  0  0  0
   10.5509   11.6948  -21.1308 C   0  0  0  0  0  0  0  0  0  0  0  0
   10.8890   11.8304  -22.4614 C   0  0  0  0  0  0  0  0  0  0  0  0
   11.9845   14.3237  -18.8238 N   0  0  0  0  0  0  0  0  0  0  0  0
   12.5568   14.6280  -21.1411 N   0  0  0  0  0  0  0  0  0  0  0  0
   11.6807   12.9387  -22.5689 N   0  0  0  0  0  0  0  0  0  0  0  0
   12.0750   13.3174  -23.4175 H   0  0  0  0  0  0  0  0  0  0  0  0
   11.9084   13.7347  -15.1016 C   0  0  0  0  0  0  0  0  0  0  0  0
   12.8922   14.2641  -15.9640 C   0  0  0  0  0  0  0  0  0  0  0  0
   13.5755   15.4463  -15.6656 C   0  0  0  0  0  0  0  0  0  0  0  0
   13.2532   16.1311  -14.4903 C   0  0  0  0  0  0  0  0  0  0  0  0
   12.2698   15.6401  -13.6353 C   0  0  0  0  0  0  0  0  0  0  0  0
   11.6044   14.4534  -13.9413 C   0  0  0  0  0  0  0  0  0  0  0  0
   15.3333   15.3733  -17.4547 C   0  0  0  0  0  0  0  0  0  0  0  0
   14.5853   16.0089  -16.4782 N   0  0  0  0  0  0  0  0  0  0  0  0
   15.2326   14.1902  -17.7682 O   0  0  0  0  0  0  0  0  0  0  0  0
   14.7653   16.9821  -16.2969 H   0  0  0  0  0  0  0  0  0  0  0  0
   16.3521   16.2060  -18.1835 C   0  0  0  0  0  0  0  0  0  0  0  0
   17.6581   16.4373  -17.7259 C   0  0  0  0  0  0  0  0  0  0  0  0
   18.5404   17.2291  -18.4705 C   0  0  0  0  0  0  0  0  0  0  0  0
   18.1318   17.7972  -19.6749 C   0  0  0  0  0  0  0  0  0  0  0  0
   16.8400   17.5766  -20.1416 C   0  0  0  0  0  0  0  0  0  0  0  0
   15.9577   16.7867  -19.4013 C   0  0  0  0  0  0  0  0  0  0  0  0
  1  2  1  0  0  0
  2  3  1  0  0  0
  3  4  1  0  0  0
  3 17  1  0  0  0
  4  6  1  0  0  0
  5  6  1  0  0  0
  5  1  1  0  0  0
  8 13  2  0  0  0
  9 14  2  0  0  0
 10 11  1  0  0  0
 10  7  2  0  0  0
 12 15  1  0  0  0
 18 19  2  0  0  0
 19 24  1  0  0  0
 20 21  2  0  0  0
 22 17  2  0  0  0
 23 27  1  0  0  0
 28 29  2  0  0  0
 30 31  2  0  0  0
 32 27  2  0  0  0
  6  7  1  0  0  0
 15  9  1  0  0  0
 24 23  1  0  0  0
  7 13  1  0  0  0
  8 14  1  0  0  0
  9 10  1  0  0  0
 11 12  2  0  0  0
 17 18  1  0  0  0
 19 20  1  0  0  0
 21 22  1  0  0  0
 23 25  2  0  0  0
 27 28  1  0  0  0
 29 30  1  0  0  0
 31 32  1  0  0  0
 15 16  1  0  0  0
 24 26  1  0  0  0
M  END
> <minimizedAffinity>
-8.72278

$$$$
CHEMBL4448573


 32 36  0  0  0  0  0  0  0  0999 V2000
    9.3304   12.1714  -22.3138 C   0  0  0  0  0  0  0  0  0  0  0  0
    9.3528   10.9360  -21.4101 C   0  0  0  0  0  0  0  0  0  0  0  0
   10.2920   11.1117  -20.1918 C   0  0  0  0  0  0  0  0  0  0  0  0
   11.6848   11.6168  -20.6620 C   0  0  0  0  0  0  0  0  0  0  0  0
   10.7476   12.5175  -22.7591 C   0  0  0  0  0  0  0  0  0  0  0  0
   11.5568   12.7625  -21.5785 N   0  0  0  0  0  0  0  0  0  0  0  0
   12.2488   13.9309  -21.3209 C   0  0  0  0  0  0  0  0  0  0  0  0
   12.8989   16.0473  -22.1281 C   0  0  0  0  0  0  0  0  0  0  0  0
   13.6869   15.4556  -20.1561 C   0  0  0  0  0  0  0  0  0  0  0  0
   13.0481   14.2188  -20.1803 C   0  0  0  0  0  0  0  0  0  0  0  0
   13.4660   13.5629  -18.9779 C   0  0  0  0  0  0  0  0  0  0  0  0
   14.2713   14.4231  -18.2604 C   0  0  0  0  0  0  0  0  0  0  0  0
   12.2154   14.9011  -22.2846 N   0  0  0  0  0  0  0  0  0  0  0  0
   13.6573   16.4133  -21.0912 N   0  0  0  0  0  0  0  0  0  0  0  0
   14.3975   15.5689  -18.9938 N   0  0  0  0  0  0  0  0  0  0  0  0
   14.9411   16.3837  -18.7497 H   0  0  0  0  0  0  0  0  0  0  0  0
    9.6162   11.8931  -19.0628 C   0  0  0  0  0  0  0  0  0  0  0  0
   10.4202   12.4052  -18.0221 C   0  0  0  0  0  0  0  0  0  0  0  0
    9.8748   13.1227  -16.9538 C   0  0  0  0  0  0  0  0  0  0  0  0
    8.4968   13.3569  -16.9347 C   0  0  0  0  0  0  0  0  0  0  0  0
    7.6865   12.8811  -17.9624 C   0  0  0  0  0  0  0  0  0  0  0  0
    8.2439   12.1574  -19.0160 C   0  0  0  0  0  0  0  0  0  0  0  0
   11.2218   14.8834  -15.7784 C   0  0  0  0  0  0  0  0  0  0  0  0
   10.6268   13.6369  -15.8737 N   0  0  0  0  0  0  0  0  0  0  0  0
   11.1888   15.7538  -16.6442 O   0  0  0  0  0  0  0  0  0  0  0  0
   10.7327   12.9973  -15.1042 H   0  0  0  0  0  0  0  0  0  0  0  0
   11.9703   15.1869  -14.5095 C   0  0  0  0  0  0  0  0  0  0  0  0
   11.5119   14.8618  -13.2239 C   0  0  0  0  0  0  0  0  0  0  0  0
   12.2757   15.1852  -12.0961 C   0  0  0  0  0  0  0  0  0  0  0  0
   13.5002   15.8340  -12.2370 C   0  0  0  0  0  0  0  0  0  0  0  0
   13.9679   16.1624  -13.5053 C   0  0  0  0  0  0  0  0  0  0  0  0
   13.2085   15.8407  -14.6323 C   0  0  0  0  0  0  0  0  0  0  0  0
  1  2  1  0  0  0
  2  3  1  0  0  0
  3  4  1  0  0  0
  3 17  1  0  0  0
  4  6  1  0  0  0
  5  6  1  0  0  0
  5  1  1  0  0  0
  8 13  2  0  0  0
  9 14  2  0  0  0
 10 11  1  0  0  0
 10  7  2  0  0  0
 12 15  1  0  0  0
 18 19  2  0  0  0
 19 24  1  0  0  0
 20 21  2  0  0  0
 22 17  2  0  0  0
 23 27  1  0  0  0
 28 29  2  0  0  0
 30 31  2  0  0  0
 32 27  2  0  0  0
  6  7  1  0  0  0
 15  9  1  0  0  0
 24 23  1  0  0  0
  7 13  1  0  0  0
  8 14  1  0  0  0
  9 10  1  0  0  0
 11 12  2  0  0  0
 17 18  1  0  0  0
 19 20  1  0  0  0
 21 22  1  0  0  0
 23 25  2  0  0  0
 27 28  1  0  0  0
 29 30  1  0  0  0
 31 32  1  0  0  0
 15 16  1  0  0  0
 24 26  1  0  0  0
M  END
> <minimizedAffinity>
-8.51614

$$$$
CHEMBL4448573


 32 36  0  0  0  0  0  0  0  0999 V2000
   18.2948   20.4783  -21.0317 C   0  0  0  0  0  0  0  0  0  0  0  0
   18.5086   20.9222  -19.5823 C   0  0  0  0  0  0  0  0  0  0  0  0
   17.2964   20.5912  -18.6777 C   0  0  0  0  0  0  0  0  0  0  0  0
   15.9841   21.0956  -19.3408 C   0  0  0  0  0  0  0  0  0  0  0  0
   17.0140   21.0965  -21.5828 C   0  0  0  0  0  0  0  0  0  0  0  0
   15.9013   20.6758  -20.7500 N   0  0  0  0  0  0  0  0  0  0  0  0
   14.7812   20.0053  -21.2040 C   0  0  0  0  0  0  0  0  0  0  0  0
   12.5790   20.1896  -22.0224 C   0  0  0  0  0  0  0  0  0  0  0  0
   13.3499   18.1485  -21.7073 C   0  0  0  0  0  0  0  0  0  0  0  0
   14.5832   18.5974  -21.2430 C   0  0  0  0  0  0  0  0  0  0  0  0
   15.2982   17.4097  -20.8840 C   0  0  0  0  0  0  0  0  0  0  0  0
   14.5188   16.3133  -21.1904 C   0  0  0  0  0  0  0  0  0  0  0  0
   13.7199   20.7670  -21.6096 N   0  0  0  0  0  0  0  0  0  0  0  0
   12.3070   18.8847  -22.1105 N   0  0  0  0  0  0  0  0  0  0  0  0
   13.3355   16.7817  -21.6874 N   0  0  0  0  0  0  0  0  0  0  0  0
   12.5455   16.2279  -21.9845 H   0  0  0  0  0  0  0  0  0  0  0  0
   17.3204   19.1351  -18.2078 C   0  0  0  0  0  0  0  0  0  0  0  0
   16.3126   18.6955  -17.3230 C   0  0  0  0  0  0  0  0  0  0  0  0
   16.2721   17.3826  -16.8451 C   0  0  0  0  0  0  0  0  0  0  0  0
   17.2463   16.4787  -17.2787 C   0  0  0  0  0  0  0  0  0  0  0  0
   18.2372   16.8836  -18.1695 C   0  0  0  0  0  0  0  0  0  0  0  0
   18.2707   18.1998  -18.6290 C   0  0  0  0  0  0  0  0  0  0  0  0
   15.3665   16.8915  -14.5572 C   0  0  0  0  0  0  0  0  0  0  0  0
   15.3029   16.8944  -15.9403 N   0  0  0  0  0  0  0  0  0  0  0  0
   16.3029   17.3209  -13.8887 O   0  0  0  0  0  0  0  0  0  0  0  0
   14.4885   16.5013  -16.3816 H   0  0  0  0  0  0  0  0  0  0  0  0
   14.1903   16.3102  -13.8215 C   0  0  0  0  0  0  0  0  0  0  0  0
   14.0596   16.2962  -12.4246 C   0  0  0  0  0  0  0  0  0  0  0  0
   12.9286   15.7307  -11.8239 C   0  0  0  0  0  0  0  0  0  0  0  0
   11.9191   15.1748  -12.6064 C   0  0  0  0  0  0  0  0  0  0  0  0
   12.0345   15.1817  -13.9928 C   0  0  0  0  0  0  0  0  0  0  0  0
   13.1614   15.7455  -14.5949 C   0  0  0  0  0  0  0  0  0  0  0  0
  1  2  1  0  0  0
  2  3  1  0  0  0
  3  4  1  0  0  0
  3 17  1  0  0  0
  4  6  1  0  0  0
  5  6  1  0  0  0
  5  1  1  0  0  0
  8 13  2  0  0  0
  9 14  2  0  0  0
 10 11  1  0  0  0
 10  7  2  0  0  0
 12 15  1  0  0  0
 18 19  2  0  0  0
 19 24  1  0  0  0
 20 21  2  0  0  0
 22 17  2  0  0  0
 23 27  1  0  0  0
 28 29  2  0  0  0
 30 31  2  0  0  0
 32 27  2  0  0  0
  6  7  1  0  0  0
 15  9  1  0  0  0
 24 23  1  0  0  0
  7 13  1  0  0  0
  8 14  1  0  0  0
  9 10  1  0  0  0
 11 12  2  0  0  0
 17 18  1  0  0  0
 19 20  1  0  0  0
 21 22  1  0  0  0
 23 25  2  0  0  0
 27 28  1  0  0  0
 29 30  1  0  0  0
 31 32  1  0  0  0
 15 16  1  0  0  0
 24 26  1  0  0  0
M  END
> <minimizedAffinity>
-8.06729

$$$$
CHEMBL4448573


 32 36  0  0  0  0  0  0  0  0999 V2000
   10.9477   13.2860  -23.4846 C   0  0  0  0  0  0  0  0  0  0  0  0
   11.3933   11.9597  -22.8634 C   0  0  0  0  0  0  0  0  0  0  0  0
   12.3622   12.1608  -21.6726 C   0  0  0  0  0  0  0  0  0  0  0  0
   13.5123   13.1241  -22.0790 C   0  0  0  0  0  0  0  0  0  0  0  0
   12.1669   14.1024  -23.9011 C   0  0  0  0  0  0  0  0  0  0  0  0
   12.9888   14.3384  -22.7276 N   0  0  0  0  0  0  0  0  0  0  0  0
   13.3576   15.5842  -22.2561 C   0  0  0  0  0  0  0  0  0  0  0  0
   14.9081   16.8237  -20.9860 C   0  0  0  0  0  0  0  0  0  0  0  0
   13.1898   17.9338  -21.8076 C   0  0  0  0  0  0  0  0  0  0  0  0
   12.6399   16.8030  -22.4054 C   0  0  0  0  0  0  0  0  0  0  0  0
   11.4111   17.2526  -22.9873 C   0  0  0  0  0  0  0  0  0  0  0  0
   11.2928   18.6112  -22.7792 C   0  0  0  0  0  0  0  0  0  0  0  0
   14.5060   15.6565  -21.5166 N   0  0  0  0  0  0  0  0  0  0  0  0
   14.3144   18.0162  -21.0860 N   0  0  0  0  0  0  0  0  0  0  0  0
   12.3825   19.0084  -22.0570 N   0  0  0  0  0  0  0  0  0  0  0  0
   12.5790   19.9419  -21.7270 H   0  0  0  0  0  0  0  0  0  0  0  0
   11.6114   12.4844  -20.3790 C   0  0  0  0  0  0  0  0  0  0  0  0
   12.3159   13.1122  -19.3295 C   0  0  0  0  0  0  0  0  0  0  0  0
   11.7003   13.4327  -18.1163 C   0  0  0  0  0  0  0  0  0  0  0  0
   10.3426   13.1425  -17.9537 C   0  0  0  0  0  0  0  0  0  0  0  0
    9.6213   12.5441  -18.9837 C   0  0  0  0  0  0  0  0  0  0  0  0
   10.2521   12.2203  -20.1845 C   0  0  0  0  0  0  0  0  0  0  0  0
   11.9435   15.1345  -16.2886 C   0  0  0  0  0  0  0  0  0  0  0  0
   12.3610   14.0382  -17.0239 N   0  0  0  0  0  0  0  0  0  0  0  0
   10.9088   15.7670  -16.4825 O   0  0  0  0  0  0  0  0  0  0  0  0
   13.2373   13.6069  -16.7821 H   0  0  0  0  0  0  0  0  0  0  0  0
   12.8372   15.5827  -15.1648 C   0  0  0  0  0  0  0  0  0  0  0  0
   14.1530   16.0393  -15.3348 C   0  0  0  0  0  0  0  0  0  0  0  0
   14.9144   16.4354  -14.2288 C   0  0  0  0  0  0  0  0  0  0  0  0
   14.3746   16.3806  -12.9459 C   0  0  0  0  0  0  0  0  0  0  0  0
   13.0712   15.9304  -12.7617 C   0  0  0  0  0  0  0  0  0  0  0  0
   12.3090   15.5351  -13.8632 C   0  0  0  0  0  0  0  0  0  0  0  0
  1  2  1  0  0  0
  2  3  1  0  0  0
  3  4  1  0  0  0
  3 17  1  0  0  0
  4  6  1  0  0  0
  5  6  1  0  0  0
  5  1  1  0  0  0
  8 13  2  0  0  0
  9 14  2  0  0  0
 10 11  1  0  0  0
 10  7  2  0  0  0
 12 15  1  0  0  0
 18 19  2  0  0  0
 19 24  1  0  0  0
 20 21  2  0  0  0
 22 17  2  0  0  0
 23 27  1  0  0  0
 28 29  2  0  0  0
 30 31  2  0  0  0
 32 27  2  0  0  0
  6  7  1  0  0  0
 15  9  1  0  0  0
 24 23  1  0  0  0
  7 13  1  0  0  0
  8 14  1  0  0  0
  9 10  1  0  0  0
 11 12  2  0  0  0
 17 18  1  0  0  0
 19 20  1  0  0  0
 21 22  1  0  0  0
 23 25  2  0  0  0
 27 28  1  0  0  0
 29 30  1  0  0  0
 31 32  1  0  0  0
 15 16  1  0  0  0
 24 26  1  0  0  0
M  END
> <minimizedAffinity>
-8.03895

$$$$
CHEMBL4545883


 29 32  0  0  0  0  0  0  0  0999 V2000
   14.9390   15.2513  -17.3089 C   0  0  0  0  0  0  0  0  0  0  0  0
   15.8979   16.2744  -17.4506 C   0  0  0  0  0  0  0  0  0  0  0  0
   16.7000   16.5063  -18.5967 C   0  0  0  0  0  0  0  0  0  0  0  0
   17.5825   17.5730  -18.6019 C   0  0  0  0  0  0  0  0  0  0  0  0
   16.9576   18.1542  -16.4748 C   0  0  0  0  0  0  0  0  0  0  0  0
   16.0394   17.1234  -16.3496 C   0  0  0  0  0  0  0  0  0  0  0  0
   14.4733   15.9689  -15.1591 C   0  0  0  0  0  0  0  0  0  0  0  0
   17.7280   18.4106  -17.5631 N   0  0  0  0  0  0  0  0  0  0  0  0
   15.3402   16.9869  -15.2171 N   0  0  0  0  0  0  0  0  0  0  0  0
   14.2573   15.0994  -16.1615 N   0  0  0  0  0  0  0  0  0  0  0  0
   13.6877   15.8120  -13.9193 C   0  0  0  0  0  0  0  0  0  0  0  0
   14.1890   16.2257  -12.6786 C   0  0  0  0  0  0  0  0  0  0  0  0
   13.4278   16.0570  -11.5330 C   0  0  0  0  0  0  0  0  0  0  0  0
   11.7158   15.1096  -12.7233 C   0  0  0  0  0  0  0  0  0  0  0  0
   12.4075   15.2390  -13.9190 C   0  0  0  0  0  0  0  0  0  0  0  0
   12.1997   15.5050  -11.5289 N   0  0  0  0  0  0  0  0  0  0  0  0
   14.7068   14.3573  -18.3515 N   0  0  0  0  0  0  0  0  0  0  0  0
   15.5387   14.0644  -18.8460 H   0  0  0  0  0  0  0  0  0  0  0  0
   13.3319   12.8785  -19.7930 C   0  0  0  0  0  0  0  0  0  0  0  0
   13.4622   14.2735  -19.1571 C   0  0  0  0  0  0  0  0  0  0  0  0
   13.6452   15.2825  -20.3160 C   0  0  0  0  0  0  0  0  0  0  0  0
   12.2022   14.6683  -18.3002 C   0  0  0  0  0  0  0  0  0  0  0  0
    9.8892   13.9373  -18.6061 C   0  0  0  0  0  0  0  0  0  0  0  0
    8.9451   12.7291  -18.5687 C   0  0  0  0  0  0  0  0  0  0  0  0
    9.1038   11.8825  -17.3069 C   0  0  0  0  0  0  0  0  0  0  0  0
    9.7202   12.7091  -16.1881 C   0  0  0  0  0  0  0  0  0  0  0  0
   11.0987   13.2738  -16.6020 C   0  0  0  0  0  0  0  0  0  0  0  0
   12.1892   12.2641  -16.2249 C   0  0  0  0  0  0  0  0  0  0  0  0
   11.2044   13.5920  -18.0514 N   0  0  0  0  0  0  0  0  0  0  0  0
 19 20  1  0  0  0
 20 21  1  0  0  0
 20 17  1  0  0  0
 20 22  1  0  0  0
  1  2  2  0  0  0
  3  4  2  0  0  0
  5  8  2  0  0  0
  6  9  2  0  0  0
  6  2  1  0  0  0
  7 10  2  0  0  0
  7 11  1  0  0  0
 12 13  2  0  0  0
 14 16  2  0  0  0
 15 11  2  0  0  0
 22 29  1  0  0  0
 23 29  1  0  0  0
 23 24  1  0  0  0
 24 25  1  0  0  0
 25 26  1  0  0  0
 26 27  1  0  0  0
 27 28  1  0  0  0
 27 29  1  0  0  0
 17  1  1  0  0  0
  1 10  1  0  0  0
  2  3  1  0  0  0
  4  8  1  0  0  0
  5  6  1  0  0  0
  7  9  1  0  0  0
 11 12  1  0  0  0
 13 16  1  0  0  0
 14 15  1  0  0  0
 17 18  1  0  0  0
M  END
> <minimizedAffinity>
-9.01666

$$$$
CHEMBL4545883


 29 32  0  0  0  0  0  0  0  0999 V2000
   11.6643   15.1587  -14.4453 C   0  0  0  0  0  0  0  0  0  0  0  0
   11.5131   14.8478  -13.0791 C   0  0  0  0  0  0  0  0  0  0  0  0
   10.3838   14.2241  -12.4905 C   0  0  0  0  0  0  0  0  0  0  0  0
   10.3896   13.9537  -11.1328 C   0  0  0  0  0  0  0  0  0  0  0  0
   12.4796   14.8692  -10.9171 C   0  0  0  0  0  0  0  0  0  0  0  0
   12.5934   15.1893  -12.2609 C   0  0  0  0  0  0  0  0  0  0  0  0
   13.7458   16.0749  -14.0189 C   0  0  0  0  0  0  0  0  0  0  0  0
   11.4193   14.2593  -10.3277 N   0  0  0  0  0  0  0  0  0  0  0  0
   13.7009   15.7891  -12.7122 N   0  0  0  0  0  0  0  0  0  0  0  0
   12.7653   15.7852  -14.8920 N   0  0  0  0  0  0  0  0  0  0  0  0
   14.9658   16.7278  -14.5328 C   0  0  0  0  0  0  0  0  0  0  0  0
   15.9128   17.2918  -13.6684 C   0  0  0  0  0  0  0  0  0  0  0  0
   17.0438   17.9037  -14.1846 C   0  0  0  0  0  0  0  0  0  0  0  0
   16.3951   17.4519  -16.3341 C   0  0  0  0  0  0  0  0  0  0  0  0
   15.2359   16.8212  -15.9059 C   0  0  0  0  0  0  0  0  0  0  0  0
   17.3048   17.9974  -15.5022 N   0  0  0  0  0  0  0  0  0  0  0  0
   10.6535   14.8485  -15.3521 N   0  0  0  0  0  0  0  0  0  0  0  0
    9.7330   15.1652  -15.0787 H   0  0  0  0  0  0  0  0  0  0  0  0
    9.5214   12.7052  -15.8808 C   0  0  0  0  0  0  0  0  0  0  0  0
   10.6446   13.6817  -16.2706 C   0  0  0  0  0  0  0  0  0  0  0  0
   11.9851   12.9479  -16.0277 C   0  0  0  0  0  0  0  0  0  0  0  0
   10.5527   14.1414  -17.7732 C   0  0  0  0  0  0  0  0  0  0  0  0
   12.5756   14.3284  -19.1339 C   0  0  0  0  0  0  0  0  0  0  0  0
   13.6330   13.5393  -19.9158 C   0  0  0  0  0  0  0  0  0  0  0  0
   13.0301   12.4975  -20.8567 C   0  0  0  0  0  0  0  0  0  0  0  0
   11.5932   12.8615  -21.1995 C   0  0  0  0  0  0  0  0  0  0  0  0
   10.7221   12.9661  -19.9264 C   0  0  0  0  0  0  0  0  0  0  0  0
   10.1191   11.5911  -19.6157 C   0  0  0  0  0  0  0  0  0  0  0  0
   11.4623   13.4583  -18.7336 N   0  0  0  0  0  0  0  0  0  0  0  0
 19 20  1  0  0  0
 20 21  1  0  0  0
 20 17  1  0  0  0
 20 22  1  0  0  0
  1  2  2  0  0  0
  3  4  2  0  0  0
  5  8  2  0  0  0
  6  9  2  0  0  0
  6  2  1  0  0  0
  7 10  2  0  0  0
  7 11  1  0  0  0
 12 13  2  0  0  0
 14 16  2  0  0  0
 15 11  2  0  0  0
 22 29  1  0  0  0
 23 29  1  0  0  0
 23 24  1  0  0  0
 24 25  1  0  0  0
 25 26  1  0  0  0
 26 27  1  0  0  0
 27 28  1  0  0  0
 27 29  1  0  0  0
 17  1  1  0  0  0
  1 10  1  0  0  0
  2  3  1  0  0  0
  4  8  1  0  0  0
  5  6  1  0  0  0
  7  9  1  0  0  0
 11 12  1  0  0  0
 13 16  1  0  0  0
 14 15  1  0  0  0
 17 18  1  0  0  0
M  END
> <minimizedAffinity>
-8.83466

$$$$
CHEMBL4545883


 29 32  0  0  0  0  0  0  0  0999 V2000
   13.9110   15.7457  -15.8079 C   0  0  0  0  0  0  0  0  0  0  0  0
   15.0266   16.5343  -15.4618 C   0  0  0  0  0  0  0  0  0  0  0  0
   15.9839   17.0594  -16.3666 C   0  0  0  0  0  0  0  0  0  0  0  0
   17.0152   17.8454  -15.8817 C   0  0  0  0  0  0  0  0  0  0  0  0
   16.2426   17.6090  -13.7369 C   0  0  0  0  0  0  0  0  0  0  0  0
   15.1676   16.8125  -14.0995 C   0  0  0  0  0  0  0  0  0  0  0  0
   13.3130   15.5914  -13.5781 C   0  0  0  0  0  0  0  0  0  0  0  0
   17.1657   18.1382  -14.5804 N   0  0  0  0  0  0  0  0  0  0  0  0
   14.3277   16.3586  -13.1622 N   0  0  0  0  0  0  0  0  0  0  0  0
   13.0842   15.2685  -14.8630 N   0  0  0  0  0  0  0  0  0  0  0  0
   12.3726   15.0916  -12.5560 C   0  0  0  0  0  0  0  0  0  0  0  0
   12.7281   15.0307  -11.2026 C   0  0  0  0  0  0  0  0  0  0  0  0
   11.8233   14.5492  -10.2700 C   0  0  0  0  0  0  0  0  0  0  0  0
   10.2424   14.1830  -11.8860 C   0  0  0  0  0  0  0  0  0  0  0  0
   11.0831   14.6494  -12.8863 C   0  0  0  0  0  0  0  0  0  0  0  0
   10.5858   14.1216  -10.5840 N   0  0  0  0  0  0  0  0  0  0  0  0
   13.6672   15.4205  -17.1402 N   0  0  0  0  0  0  0  0  0  0  0  0
   13.6549   16.2117  -17.7697 H   0  0  0  0  0  0  0  0  0  0  0  0
   13.1177   13.0410  -16.7029 C   0  0  0  0  0  0  0  0  0  0  0  0
   12.8770   14.2564  -17.6150 C   0  0  0  0  0  0  0  0  0  0  0  0
   13.4537   13.8984  -19.0056 C   0  0  0  0  0  0  0  0  0  0  0  0
   11.3514   14.6207  -17.7481 C   0  0  0  0  0  0  0  0  0  0  0  0
   10.1578   13.2446  -19.3790 C   0  0  0  0  0  0  0  0  0  0  0  0
    9.3992   11.9278  -19.5861 C   0  0  0  0  0  0  0  0  0  0  0  0
    8.3442   11.6678  -18.5122 C   0  0  0  0  0  0  0  0  0  0  0  0
    7.9257   12.9736  -17.8532 C   0  0  0  0  0  0  0  0  0  0  0  0
    9.1366   13.6941  -17.2168 C   0  0  0  0  0  0  0  0  0  0  0  0
    9.3023   13.2156  -15.7696 C   0  0  0  0  0  0  0  0  0  0  0  0
   10.4124   13.4838  -17.9525 N   0  0  0  0  0  0  0  0  0  0  0  0
 19 20  1  0  0  0
 20 21  1  0  0  0
 20 17  1  0  0  0
 20 22  1  0  0  0
  1  2  2  0  0  0
  3  4  2  0  0  0
  5  8  2  0  0  0
  6  9  2  0  0  0
  6  2  1  0  0  0
  7 10  2  0  0  0
  7 11  1  0  0  0
 12 13  2  0  0  0
 14 16  2  0  0  0
 15 11  2  0  0  0
 22 29  1  0  0  0
 23 29  1  0  0  0
 23 24  1  0  0  0
 24 25  1  0  0  0
 25 26  1  0  0  0
 26 27  1  0  0  0
 27 28  1  0  0  0
 27 29  1  0  0  0
 17  1  1  0  0  0
  1 10  1  0  0  0
  2  3  1  0  0  0
  4  8  1  0  0  0
  5  6  1  0  0  0
  7  9  1  0  0  0
 11 12  1  0  0  0
 13 16  1  0  0  0
 14 15  1  0  0  0
 17 18  1  0  0  0
M  END
> <minimizedAffinity>
-8.67251

$$$$
CHEMBL4545883


 29 32  0  0  0  0  0  0  0  0999 V2000
   12.0220   15.2931  -14.8480 C   0  0  0  0  0  0  0  0  0  0  0  0
   12.2518   15.2877  -13.4576 C   0  0  0  0  0  0  0  0  0  0  0  0
   11.3128   14.9137  -12.4631 C   0  0  0  0  0  0  0  0  0  0  0  0
   11.6923   14.9305  -11.1318 C   0  0  0  0  0  0  0  0  0  0  0  0
   13.7905   15.6599  -11.6960 C   0  0  0  0  0  0  0  0  0  0  0  0
   13.5314   15.6826  -13.0576 C   0  0  0  0  0  0  0  0  0  0  0  0
   14.1715   16.0675  -15.2127 C   0  0  0  0  0  0  0  0  0  0  0  0
   12.9183   15.2928  -10.7224 N   0  0  0  0  0  0  0  0  0  0  0  0
   14.4875   16.0639  -13.9122 N   0  0  0  0  0  0  0  0  0  0  0  0
   12.9741   15.7019  -15.7026 N   0  0  0  0  0  0  0  0  0  0  0  0
   15.2198   16.4765  -16.1681 C   0  0  0  0  0  0  0  0  0  0  0  0
   15.5202   15.7055  -17.2983 C   0  0  0  0  0  0  0  0  0  0  0  0
   16.5156   16.1149  -18.1711 C   0  0  0  0  0  0  0  0  0  0  0  0
   16.9470   17.9823  -16.9174 C   0  0  0  0  0  0  0  0  0  0  0  0
   15.9687   17.6492  -15.9917 C   0  0  0  0  0  0  0  0  0  0  0  0
   17.2381   17.2386  -18.0034 N   0  0  0  0  0  0  0  0  0  0  0  0
   10.7852   14.9035  -15.3566 N   0  0  0  0  0  0  0  0  0  0  0  0
    9.9937   15.1749  -14.7889 H   0  0  0  0  0  0  0  0  0  0  0  0
    9.3012   12.9475  -15.7130 C   0  0  0  0  0  0  0  0  0  0  0  0
   10.5379   13.7149  -16.2118 C   0  0  0  0  0  0  0  0  0  0  0  0
   11.7591   12.7878  -16.0027 C   0  0  0  0  0  0  0  0  0  0  0  0
   10.4284   14.1188  -17.7292 C   0  0  0  0  0  0  0  0  0  0  0  0
   12.5066   14.3541  -18.9957 C   0  0  0  0  0  0  0  0  0  0  0  0
   13.6062   13.5918  -19.7454 C   0  0  0  0  0  0  0  0  0  0  0  0
   13.0571   12.5623  -20.7317 C   0  0  0  0  0  0  0  0  0  0  0  0
   11.6325   12.9176  -21.1303 C   0  0  0  0  0  0  0  0  0  0  0  0
   10.7053   12.9879  -19.8950 C   0  0  0  0  0  0  0  0  0  0  0  0
   10.1052   11.6007  -19.6376 C   0  0  0  0  0  0  0  0  0  0  0  0
   11.3869   13.4645  -18.6615 N   0  0  0  0  0  0  0  0  0  0  0  0
 19 20  1  0  0  0
 20 21  1  0  0  0
 20 17  1  0  0  0
 20 22  1  0  0  0
  1  2  2  0  0  0
  3  4  2  0  0  0
  5  8  2  0  0  0
  6  9  2  0  0  0
  6  2  1  0  0  0
  7 10  2  0  0  0
  7 11  1  0  0  0
 12 13  2  0  0  0
 14 16  2  0  0  0
 15 11  2  0  0  0
 22 29  1  0  0  0
 23 29  1  0  0  0
 23 24  1  0  0  0
 24 25  1  0  0  0
 25 26  1  0  0  0
 26 27  1  0  0  0
 27 28  1  0  0  0
 27 29  1  0  0  0
 17  1  1  0  0  0
  1 10  1  0  0  0
  2  3  1  0  0  0
  4  8  1  0  0  0
  5  6  1  0  0  0
  7  9  1  0  0  0
 11 12  1  0  0  0
 13 16  1  0  0  0
 14 15  1  0  0  0
 17 18  1  0  0  0
M  END
> <minimizedAffinity>
-8.66782

$$$$
CHEMBL4545883


 29 32  0  0  0  0  0  0  0  0999 V2000
   10.5034   13.6336  -17.4480 C   0  0  0  0  0  0  0  0  0  0  0  0
   11.7252   13.9009  -18.0975 C   0  0  0  0  0  0  0  0  0  0  0  0
   12.7549   14.7466  -17.6122 C   0  0  0  0  0  0  0  0  0  0  0  0
   13.9175   14.8908  -18.3498 C   0  0  0  0  0  0  0  0  0  0  0  0
   13.1163   13.4784  -19.9671 C   0  0  0  0  0  0  0  0  0  0  0  0
   11.9106   13.2524  -19.3215 C   0  0  0  0  0  0  0  0  0  0  0  0
    9.8556   12.2701  -19.2015 C   0  0  0  0  0  0  0  0  0  0  0  0
   14.1259   14.2692  -19.5211 N   0  0  0  0  0  0  0  0  0  0  0  0
   10.9999   12.4426  -19.8736 N   0  0  0  0  0  0  0  0  0  0  0  0
    9.5792   12.8418  -18.0164 N   0  0  0  0  0  0  0  0  0  0  0  0
    8.8455   11.3714  -19.7939 C   0  0  0  0  0  0  0  0  0  0  0  0
    7.6446   11.0842  -19.1326 C   0  0  0  0  0  0  0  0  0  0  0  0
    6.7211   10.2302  -19.7140 C   0  0  0  0  0  0  0  0  0  0  0  0
    8.0575    9.9164  -21.5472 C   0  0  0  0  0  0  0  0  0  0  0  0
    9.0374   10.7579  -21.0405 C   0  0  0  0  0  0  0  0  0  0  0  0
    6.9032    9.6376  -20.9093 N   0  0  0  0  0  0  0  0  0  0  0  0
   10.2215   14.2167  -16.2149 N   0  0  0  0  0  0  0  0  0  0  0  0
   10.5021   15.1849  -16.1347 H   0  0  0  0  0  0  0  0  0  0  0  0
   11.3030   12.4952  -14.7930 C   0  0  0  0  0  0  0  0  0  0  0  0
   10.1438   13.4992  -14.9171 C   0  0  0  0  0  0  0  0  0  0  0  0
    8.8359   12.6741  -14.9729 C   0  0  0  0  0  0  0  0  0  0  0  0
   10.0861   14.5094  -13.7112 C   0  0  0  0  0  0  0  0  0  0  0  0
   10.8353   14.3466  -11.3895 C   0  0  0  0  0  0  0  0  0  0  0  0
   12.0457   14.0954  -10.4817 C   0  0  0  0  0  0  0  0  0  0  0  0
   13.2734   14.9136  -10.8784 C   0  0  0  0  0  0  0  0  0  0  0  0
   12.8578   16.1380  -11.6802 C   0  0  0  0  0  0  0  0  0  0  0  0
   12.0775   15.7364  -12.9531 C   0  0  0  0  0  0  0  0  0  0  0  0
   13.0678   15.5300  -14.1053 C   0  0  0  0  0  0  0  0  0  0  0  0
   11.2538   14.5088  -12.7878 N   0  0  0  0  0  0  0  0  0  0  0  0
 19 20  1  0  0  0
 20 21  1  0  0  0
 20 17  1  0  0  0
 20 22  1  0  0  0
  1  2  2  0  0  0
  3  4  2  0  0  0
  5  8  2  0  0  0
  6  9  2  0  0  0
  6  2  1  0  0  0
  7 10  2  0  0  0
  7 11  1  0  0  0
 12 13  2  0  0  0
 14 16  2  0  0  0
 15 11  2  0  0  0
 22 29  1  0  0  0
 23 29  1  0  0  0
 23 24  1  0  0  0
 24 25  1  0  0  0
 25 26  1  0  0  0
 26 27  1  0  0  0
 27 28  1  0  0  0
 27 29  1  0  0  0
 17  1  1  0  0  0
  1 10  1  0  0  0
  2  3  1  0  0  0
  4  8  1  0  0  0
  5  6  1  0  0  0
  7  9  1  0  0  0
 11 12  1  0  0  0
 13 16  1  0  0  0
 14 15  1  0  0  0
 17 18  1  0  0  0
M  END
> <minimizedAffinity>
-8.29825

$$$$
CHEMBL4545883


 29 32  0  0  0  0  0  0  0  0999 V2000
   11.6864   14.0634  -18.0919 C   0  0  0  0  0  0  0  0  0  0  0  0
   11.4667   13.1973  -19.1818 C   0  0  0  0  0  0  0  0  0  0  0  0
   10.3460   12.3452  -19.3515 C   0  0  0  0  0  0  0  0  0  0  0  0
   10.2518   11.5684  -20.4935 C   0  0  0  0  0  0  0  0  0  0  0  0
   12.2488   12.3865  -21.2651 C   0  0  0  0  0  0  0  0  0  0  0  0
   12.4553   13.2103  -20.1696 C   0  0  0  0  0  0  0  0  0  0  0  0
   13.6970   14.7376  -19.0171 C   0  0  0  0  0  0  0  0  0  0  0  0
   11.1804   11.5722  -21.4627 N   0  0  0  0  0  0  0  0  0  0  0  0
   13.5559   13.9682  -20.1030 N   0  0  0  0  0  0  0  0  0  0  0  0
   12.8046   14.8032  -18.0137 N   0  0  0  0  0  0  0  0  0  0  0  0
   14.9017   15.5866  -18.9348 C   0  0  0  0  0  0  0  0  0  0  0  0
   15.7386   15.5616  -17.8119 C   0  0  0  0  0  0  0  0  0  0  0  0
   16.8579   16.3772  -17.7641 C   0  0  0  0  0  0  0  0  0  0  0  0
   16.4053   17.2417  -19.8360 C   0  0  0  0  0  0  0  0  0  0  0  0
   15.2659   16.4613  -19.9690 C   0  0  0  0  0  0  0  0  0  0  0  0
   17.2088   17.2197  -18.7539 N   0  0  0  0  0  0  0  0  0  0  0  0
   10.7565   14.1401  -17.0577 N   0  0  0  0  0  0  0  0  0  0  0  0
   10.0526   14.8558  -17.1786 H   0  0  0  0  0  0  0  0  0  0  0  0
   12.2339   12.8474  -15.5406 C   0  0  0  0  0  0  0  0  0  0  0  0
   11.0064   13.7695  -15.6416 C   0  0  0  0  0  0  0  0  0  0  0  0
    9.7783   12.9356  -15.2044 C   0  0  0  0  0  0  0  0  0  0  0  0
   11.1335   15.0485  -14.7328 C   0  0  0  0  0  0  0  0  0  0  0  0
   10.9289   14.7725  -12.3120 C   0  0  0  0  0  0  0  0  0  0  0  0
   11.6663   14.3480  -11.0360 C   0  0  0  0  0  0  0  0  0  0  0  0
   13.0489   14.9840  -10.9022 C   0  0  0  0  0  0  0  0  0  0  0  0
   13.1287   16.2578  -11.7301 C   0  0  0  0  0  0  0  0  0  0  0  0
   12.8375   15.9761  -13.2222 C   0  0  0  0  0  0  0  0  0  0  0  0
   14.1513   15.6344  -13.9348 C   0  0  0  0  0  0  0  0  0  0  0  0
   11.8587   14.8781  -13.4440 N   0  0  0  0  0  0  0  0  0  0  0  0
 19 20  1  0  0  0
 20 21  1  0  0  0
 20 17  1  0  0  0
 20 22  1  0  0  0
  1  2  2  0  0  0
  3  4  2  0  0  0
  5  8  2  0  0  0
  6  9  2  0  0  0
  6  2  1  0  0  0
  7 10  2  0  0  0
  7 11  1  0  0  0
 12 13  2  0  0  0
 14 16  2  0  0  0
 15 11  2  0  0  0
 22 29  1  0  0  0
 23 29  1  0  0  0
 23 24  1  0  0  0
 24 25  1  0  0  0
 25 26  1  0  0  0
 26 27  1  0  0  0
 27 28  1  0  0  0
 27 29  1  0  0  0
 17  1  1  0  0  0
  1 10  1  0  0  0
  2  3  1  0  0  0
  4  8  1  0  0  0
  5  6  1  0  0  0
  7  9  1  0  0  0
 11 12  1  0  0  0
 13 16  1  0  0  0
 14 15  1  0  0  0
 17 18  1  0  0  0
M  END
> <minimizedAffinity>
-8.15471

$$$$
CHEMBL4545883


 29 32  0  0  0  0  0  0  0  0999 V2000
   11.8042   14.9106  -16.8945 C   0  0  0  0  0  0  0  0  0  0  0  0
   10.5841   14.2301  -17.0801 C   0  0  0  0  0  0  0  0  0  0  0  0
    9.9862   13.9249  -18.3292 C   0  0  0  0  0  0  0  0  0  0  0  0
    8.7939   13.2220  -18.3562 C   0  0  0  0  0  0  0  0  0  0  0  0
    8.7471   13.1312  -16.0666 C   0  0  0  0  0  0  0  0  0  0  0  0
    9.9362   13.8262  -15.9095 C   0  0  0  0  0  0  0  0  0  0  0  0
   11.5583   14.7509  -14.5994 C   0  0  0  0  0  0  0  0  0  0  0  0
    8.1583   12.8113  -17.2476 N   0  0  0  0  0  0  0  0  0  0  0  0
   10.4080   14.0718  -14.6819 N   0  0  0  0  0  0  0  0  0  0  0  0
   12.2628   15.1799  -15.6611 N   0  0  0  0  0  0  0  0  0  0  0  0
   12.0959   15.0204  -13.2514 C   0  0  0  0  0  0  0  0  0  0  0  0
   11.4779   14.5109  -12.1023 C   0  0  0  0  0  0  0  0  0  0  0  0
   12.0050   14.7894  -10.8513 C   0  0  0  0  0  0  0  0  0  0  0  0
   13.7022   16.0281  -11.7626 C   0  0  0  0  0  0  0  0  0  0  0  0
   13.2442   15.8008  -13.0524 C   0  0  0  0  0  0  0  0  0  0  0  0
   13.1055   15.5402  -10.6566 N   0  0  0  0  0  0  0  0  0  0  0  0
   12.5400   15.3452  -17.9944 N   0  0  0  0  0  0  0  0  0  0  0  0
   12.0429   15.9755  -18.6092 H   0  0  0  0  0  0  0  0  0  0  0  0
   13.6205   14.8534  -20.1729 C   0  0  0  0  0  0  0  0  0  0  0  0
   13.6321   14.5883  -18.6574 C   0  0  0  0  0  0  0  0  0  0  0  0
   13.2859   13.0934  -18.4580 C   0  0  0  0  0  0  0  0  0  0  0  0
   15.0258   14.9056  -17.9980 C   0  0  0  0  0  0  0  0  0  0  0  0
   16.2224   16.6248  -19.2592 C   0  0  0  0  0  0  0  0  0  0  0  0
   16.4541   18.1339  -19.4048 C   0  0  0  0  0  0  0  0  0  0  0  0
   16.7472   18.8270  -18.0753 C   0  0  0  0  0  0  0  0  0  0  0  0
   17.2752   17.8245  -17.0601 C   0  0  0  0  0  0  0  0  0  0  0  0
   16.2652   16.6773  -16.8271 C   0  0  0  0  0  0  0  0  0  0  0  0
   15.3138   17.0686  -15.6902 C   0  0  0  0  0  0  0  0  0  0  0  0
   15.4697   16.3260  -18.0340 N   0  0  0  0  0  0  0  0  0  0  0  0
 19 20  1  0  0  0
 20 21  1  0  0  0
 20 17  1  0  0  0
 20 22  1  0  0  0
  1  2  2  0  0  0
  3  4  2  0  0  0
  5  8  2  0  0  0
  6  9  2  0  0  0
  6  2  1  0  0  0
  7 10  2  0  0  0
  7 11  1  0  0  0
 12 13  2  0  0  0
 14 16  2  0  0  0
 15 11  2  0  0  0
 22 29  1  0  0  0
 23 29  1  0  0  0
 23 24  1  0  0  0
 24 25  1  0  0  0
 25 26  1  0  0  0
 26 27  1  0  0  0
 27 28  1  0  0  0
 27 29  1  0  0  0
 17  1  1  0  0  0
  1 10  1  0  0  0
  2  3  1  0  0  0
  4  8  1  0  0  0
  5  6  1  0  0  0
  7  9  1  0  0  0
 11 12  1  0  0  0
 13 16  1  0  0  0
 14 15  1  0  0  0
 17 18  1  0  0  0
M  END
> <minimizedAffinity>
-8.09564

$$$$
CHEMBL4545883


 29 32  0  0  0  0  0  0  0  0999 V2000
   13.4330   15.8246  -15.5545 C   0  0  0  0  0  0  0  0  0  0  0  0
   13.1736   15.7007  -14.1748 C   0  0  0  0  0  0  0  0  0  0  0  0
   12.0411   15.0729  -13.5968 C   0  0  0  0  0  0  0  0  0  0  0  0
   11.9357   15.0013  -12.2183 C   0  0  0  0  0  0  0  0  0  0  0  0
   13.9231   16.1146  -11.9666 C   0  0  0  0  0  0  0  0  0  0  0  0
   14.1424   16.2475  -13.3288 C   0  0  0  0  0  0  0  0  0  0  0  0
   15.3916   16.9680  -15.0961 C   0  0  0  0  0  0  0  0  0  0  0  0
   12.8579   15.5065  -11.3841 N   0  0  0  0  0  0  0  0  0  0  0  0
   15.2418   16.8696  -13.7698 N   0  0  0  0  0  0  0  0  0  0  0  0
   14.5235   16.4729  -15.9955 N   0  0  0  0  0  0  0  0  0  0  0  0
   16.6048   17.6431  -15.5971 C   0  0  0  0  0  0  0  0  0  0  0  0
   17.4171   18.4096  -14.7518 C   0  0  0  0  0  0  0  0  0  0  0  0
   18.5453   19.0361  -15.2566 C   0  0  0  0  0  0  0  0  0  0  0  0
   18.1481   18.2171  -17.3581 C   0  0  0  0  0  0  0  0  0  0  0  0
   17.0020   17.5565  -16.9395 C   0  0  0  0  0  0  0  0  0  0  0  0
   18.9280   18.9572  -16.5451 N   0  0  0  0  0  0  0  0  0  0  0  0
   12.5395   15.3019  -16.4865 N   0  0  0  0  0  0  0  0  0  0  0  0
   11.5649   15.4124  -16.2411 H   0  0  0  0  0  0  0  0  0  0  0  0
   12.8316   12.8409  -16.6035 C   0  0  0  0  0  0  0  0  0  0  0  0
   12.8093   14.1595  -17.3960 C   0  0  0  0  0  0  0  0  0  0  0  0
   14.2413   14.3850  -17.9375 C   0  0  0  0  0  0  0  0  0  0  0  0
   11.7856   14.1301  -18.5915 C   0  0  0  0  0  0  0  0  0  0  0  0
   10.2880   12.5776  -19.7427 C   0  0  0  0  0  0  0  0  0  0  0  0
    9.2771   11.4408  -19.5484 C   0  0  0  0  0  0  0  0  0  0  0  0
    8.2288   11.7461  -18.4797 C   0  0  0  0  0  0  0  0  0  0  0  0
    8.1000   13.2485  -18.2776 C   0  0  0  0  0  0  0  0  0  0  0  0
    9.4507   13.8766  -17.8634 C   0  0  0  0  0  0  0  0  0  0  0  0
    9.5679   13.8537  -16.3349 C   0  0  0  0  0  0  0  0  0  0  0  0
   10.6336   13.1970  -18.4566 N   0  0  0  0  0  0  0  0  0  0  0  0
 19 20  1  0  0  0
 20 21  1  0  0  0
 20 17  1  0  0  0
 20 22  1  0  0  0
  1  2  2  0  0  0
  3  4  2  0  0  0
  5  8  2  0  0  0
  6  9  2  0  0  0
  6  2  1  0  0  0
  7 10  2  0  0  0
  7 11  1  0  0  0
 12 13  2  0  0  0
 14 16  2  0  0  0
 15 11  2  0  0  0
 22 29  1  0  0  0
 23 29  1  0  0  0
 23 24  1  0  0  0
 24 25  1  0  0  0
 25 26  1  0  0  0
 26 27  1  0  0  0
 27 28  1  0  0  0
 27 29  1  0  0  0
 17  1  1  0  0  0
  1 10  1  0  0  0
  2  3  1  0  0  0
  4  8  1  0  0  0
  5  6  1  0  0  0
  7  9  1  0  0  0
 11 12  1  0  0  0
 13 16  1  0  0  0
 14 15  1  0  0  0
 17 18  1  0  0  0
M  END
> <minimizedAffinity>
-8.06948

$$$$
CHEMBL4545883


 29 32  0  0  0  0  0  0  0  0999 V2000
   13.4937   13.5500  -18.2668 C   0  0  0  0  0  0  0  0  0  0  0  0
   13.0615   13.8533  -19.5735 C   0  0  0  0  0  0  0  0  0  0  0  0
   12.0654   13.1536  -20.3009 C   0  0  0  0  0  0  0  0  0  0  0  0
   11.7233   13.5869  -21.5705 C   0  0  0  0  0  0  0  0  0  0  0  0
   13.2559   15.2866  -21.4487 C   0  0  0  0  0  0  0  0  0  0  0  0
   13.6831   14.9519  -20.1732 C   0  0  0  0  0  0  0  0  0  0  0  0
   15.0103   15.2954  -18.3503 C   0  0  0  0  0  0  0  0  0  0  0  0
   12.2955   14.6464  -22.1637 N   0  0  0  0  0  0  0  0  0  0  0  0
   14.6405   15.6737  -19.5796 N   0  0  0  0  0  0  0  0  0  0  0  0
   14.4737   14.2590  -17.6828 N   0  0  0  0  0  0  0  0  0  0  0  0
   16.0586   16.0887  -17.6791 C   0  0  0  0  0  0  0  0  0  0  0  0
   17.3929   16.0446  -18.1028 C   0  0  0  0  0  0  0  0  0  0  0  0
   18.3534   16.7966  -17.4455 C   0  0  0  0  0  0  0  0  0  0  0  0
   16.8006   17.6378  -15.9873 C   0  0  0  0  0  0  0  0  0  0  0  0
   15.7752   16.9193  -16.5849 C   0  0  0  0  0  0  0  0  0  0  0  0
   18.0852   17.5928  -16.3934 N   0  0  0  0  0  0  0  0  0  0  0  0
   12.9301   12.4833  -17.5707 N   0  0  0  0  0  0  0  0  0  0  0  0
   13.0094   11.5895  -18.0367 H   0  0  0  0  0  0  0  0  0  0  0  0
   11.9359   11.5283  -15.5079 C   0  0  0  0  0  0  0  0  0  0  0  0
   11.7878   12.5746  -16.6262 C   0  0  0  0  0  0  0  0  0  0  0  0
   10.5348   12.1846  -17.4462 C   0  0  0  0  0  0  0  0  0  0  0  0
   11.6263   14.0378  -16.0687 C   0  0  0  0  0  0  0  0  0  0  0  0
   10.3620   14.0907  -13.9766 C   0  0  0  0  0  0  0  0  0  0  0  0
   10.4693   14.0025  -12.4492 C   0  0  0  0  0  0  0  0  0  0  0  0
   11.5675   14.8942  -11.8723 C   0  0  0  0  0  0  0  0  0  0  0  0
   11.8942   16.0241  -12.8373 C   0  0  0  0  0  0  0  0  0  0  0  0
   12.3486   15.4759  -14.2097 C   0  0  0  0  0  0  0  0  0  0  0  0
   13.8691   15.2794  -14.1939 C   0  0  0  0  0  0  0  0  0  0  0  0
   11.6922   14.1963  -14.5901 N   0  0  0  0  0  0  0  0  0  0  0  0
 19 20  1  0  0  0
 20 21  1  0  0  0
 20 17  1  0  0  0
 20 22  1  0  0  0
  1  2  2  0  0  0
  3  4  2  0  0  0
  5  8  2  0  0  0
  6  9  2  0  0  0
  6  2  1  0  0  0
  7 10  2  0  0  0
  7 11  1  0  0  0
 12 13  2  0  0  0
 14 16  2  0  0  0
 15 11  2  0  0  0
 22 29  1  0  0  0
 23 29  1  0  0  0
 23 24  1  0  0  0
 24 25  1  0  0  0
 25 26  1  0  0  0
 26 27  1  0  0  0
 27 28  1  0  0  0
 27 29  1  0  0  0
 17  1  1  0  0  0
  1 10  1  0  0  0
  2  3  1  0  0  0
  4  8  1  0  0  0
  5  6  1  0  0  0
  7  9  1  0  0  0
 11 12  1  0  0  0
 13 16  1  0  0  0
 14 15  1  0  0  0
 17 18  1  0  0  0
M  END
> <minimizedAffinity>
-7.88578

$$$$
CHEMBL3715766


 25 28  0  0  0  0  0  0  0  0999 V2000
   13.3493   13.8966  -21.4276 C   0  0  0  0  0  0  0  0  0  0  0  0
   13.2945   14.1176  -19.9463 C   0  0  0  0  0  0  0  0  0  0  0  0
   14.0972   15.0541  -18.0944 C   0  0  0  0  0  0  0  0  0  0  0  0
   13.0651   14.5691  -17.3113 C   0  0  0  0  0  0  0  0  0  0  0  0
   13.2710   15.0967  -15.9953 C   0  0  0  0  0  0  0  0  0  0  0  0
   14.4700   15.8128  -16.0057 C   0  0  0  0  0  0  0  0  0  0  0  0
   14.9983   16.4224  -14.8608 C   0  0  0  0  0  0  0  0  0  0  0  0
   14.2802   16.2938  -13.6630 C   0  0  0  0  0  0  0  0  0  0  0  0
   13.0616   15.6082  -13.6206 C   0  0  0  0  0  0  0  0  0  0  0  0
   12.5432   15.0337  -14.7897 C   0  0  0  0  0  0  0  0  0  0  0  0
   12.1097   13.7539  -17.9514 C   0  0  0  0  0  0  0  0  0  0  0  0
   14.2763   14.8658  -19.4079 N   0  0  0  0  0  0  0  0  0  0  0  0
   14.9400   15.7781  -17.2987 N   0  0  0  0  0  0  0  0  0  0  0  0
   12.2419   13.5756  -19.2929 N   0  0  0  0  0  0  0  0  0  0  0  0
   15.7782   16.2259  -17.6360 H   0  0  0  0  0  0  0  0  0  0  0  0
    9.9320   13.9901  -16.9306 C   0  0  0  0  0  0  0  0  0  0  0  0
    8.9205   13.2020  -16.1062 C   0  0  0  0  0  0  0  0  0  0  0  0
    9.5532   12.7525  -14.7924 C   0  0  0  0  0  0  0  0  0  0  0  0
   11.0004   12.2761  -14.9605 C   0  0  0  0  0  0  0  0  0  0  0  0
   11.3824   11.9985  -16.4131 C   0  0  0  0  0  0  0  0  0  0  0  0
   11.0660   13.1333  -17.2777 N   0  0  0  0  0  0  0  0  0  0  0  0
   12.2717   15.4269  -12.3729 C   0  0  0  0  0  0  0  0  0  0  0  0
   12.7170   15.6545  -11.2577 O   0  0  0  0  0  0  0  0  0  0  0  0
   10.4082   14.2753  -11.5798 C   0  0  0  0  0  0  0  0  0  0  0  0
   11.0127   15.0063  -12.6484 O   0  0  0  0  0  0  0  0  0  0  0  0
  1  2  1  0  0  0
  2 14  2  0  0  0
  3 12  2  0  0  0
  4  5  1  0  0  0
  4 11  2  0  0  0
  6 13  1  0  0  0
  6  7  2  0  0  0
  8  9  2  0  0  0
  9 22  1  0  0  0
 10  5  2  0  0  0
 22 25  1  0  0  0
 24 25  1  0  0  0
 11 21  1  0  0  0
 16 21  1  0  0  0
 16 17  1  0  0  0
 17 18  1  0  0  0
 18 19  1  0  0  0
 19 20  1  0  0  0
 20 21  1  0  0  0
 13  3  1  0  0  0
  2 12  1  0  0  0
  3  4  1  0  0  0
  5  6  1  0  0  0
  7  8  1  0  0  0
  9 10  1  0  0  0
 22 23  2  0  0  0
 11 14  1  0  0  0
 13 15  1  0  0  0
M  END
> <minimizedAffinity>
-8.98385

$$$$
CHEMBL3715766


 25 28  0  0  0  0  0  0  0  0999 V2000
   10.4009   14.1143  -10.6406 C   0  0  0  0  0  0  0  0  0  0  0  0
   11.2946   14.5890  -11.7461 C   0  0  0  0  0  0  0  0  0  0  0  0
   13.0926   15.6976  -12.4454 C   0  0  0  0  0  0  0  0  0  0  0  0
   12.9189   15.3015  -13.7595 C   0  0  0  0  0  0  0  0  0  0  0  0
   14.0321   15.8266  -14.4928 C   0  0  0  0  0  0  0  0  0  0  0  0
   14.7966   16.5969  -13.6137 C   0  0  0  0  0  0  0  0  0  0  0  0
   15.9388   17.2991  -14.0187 C   0  0  0  0  0  0  0  0  0  0  0  0
   16.3116   17.2153  -15.3681 C   0  0  0  0  0  0  0  0  0  0  0  0
   15.5865   16.4308  -16.2713 C   0  0  0  0  0  0  0  0  0  0  0  0
   14.4646   15.7154  -15.8297 C   0  0  0  0  0  0  0  0  0  0  0  0
   11.7870   14.5099  -14.0411 C   0  0  0  0  0  0  0  0  0  0  0  0
   12.3228   15.3848  -11.3955 N   0  0  0  0  0  0  0  0  0  0  0  0
   14.2058   16.4872  -12.3756 N   0  0  0  0  0  0  0  0  0  0  0  0
   11.0067   14.1428  -12.9898 N   0  0  0  0  0  0  0  0  0  0  0  0
   14.5366   16.9108  -11.5223 H   0  0  0  0  0  0  0  0  0  0  0  0
   10.7451   15.1012  -16.1399 C   0  0  0  0  0  0  0  0  0  0  0  0
   10.3374   14.4845  -17.4730 C   0  0  0  0  0  0  0  0  0  0  0  0
    9.3569   13.3385  -17.2411 C   0  0  0  0  0  0  0  0  0  0  0  0
    9.7293   12.4711  -16.0334 C   0  0  0  0  0  0  0  0  0  0  0  0
   11.1611   12.6898  -15.5485 C   0  0  0  0  0  0  0  0  0  0  0  0
   11.4415   14.1063  -15.3241 N   0  0  0  0  0  0  0  0  0  0  0  0
   15.9287   16.3241  -17.7152 C   0  0  0  0  0  0  0  0  0  0  0  0
   15.7230   15.3202  -18.3813 O   0  0  0  0  0  0  0  0  0  0  0  0
   17.7265   17.3048  -18.8262 C   0  0  0  0  0  0  0  0  0  0  0  0
   16.4659   17.4801  -18.1768 O   0  0  0  0  0  0  0  0  0  0  0  0
  1  2  1  0  0  0
  2 14  2  0  0  0
  3 12  2  0  0  0
  4  5  1  0  0  0
  4 11  2  0  0  0
  6 13  1  0  0  0
  6  7  2  0  0  0
  8  9  2  0  0  0
  9 22  1  0  0  0
 10  5  2  0  0  0
 22 25  1  0  0  0
 24 25  1  0  0  0
 11 21  1  0  0  0
 16 21  1  0  0  0
 16 17  1  0  0  0
 17 18  1  0  0  0
 18 19  1  0  0  0
 19 20  1  0  0  0
 20 21  1  0  0  0
 13  3  1  0  0  0
  2 12  1  0  0  0
  3  4  1  0  0  0
  5  6  1  0  0  0
  7  8  1  0  0  0
  9 10  1  0  0  0
 22 23  2  0  0  0
 11 14  1  0  0  0
 13 15  1  0  0  0
M  END
> <minimizedAffinity>
-8.96511

$$$$
CHEMBL3715766


 25 28  0  0  0  0  0  0  0  0999 V2000
   16.7007   17.7432  -14.2440 C   0  0  0  0  0  0  0  0  0  0  0  0
   15.4534   16.9165  -14.1605 C   0  0  0  0  0  0  0  0  0  0  0  0
   13.7147   16.1406  -13.0091 C   0  0  0  0  0  0  0  0  0  0  0  0
   13.1639   15.5179  -14.1149 C   0  0  0  0  0  0  0  0  0  0  0  0
   11.9178   14.9558  -13.6861 C   0  0  0  0  0  0  0  0  0  0  0  0
   11.7977   15.1823  -12.3132 C   0  0  0  0  0  0  0  0  0  0  0  0
   10.7123   14.7165  -11.5606 C   0  0  0  0  0  0  0  0  0  0  0  0
    9.7167   13.9914  -12.2314 C   0  0  0  0  0  0  0  0  0  0  0  0
    9.7891   13.7695  -13.6106 C   0  0  0  0  0  0  0  0  0  0  0  0
   10.8733   14.2738  -14.3425 C   0  0  0  0  0  0  0  0  0  0  0  0
   13.8908   15.6011  -15.3198 C   0  0  0  0  0  0  0  0  0  0  0  0
   14.8503   16.8483  -12.9584 N   0  0  0  0  0  0  0  0  0  0  0  0
   12.8996   15.9154  -11.9356 N   0  0  0  0  0  0  0  0  0  0  0  0
   15.0285   16.3456  -15.3105 N   0  0  0  0  0  0  0  0  0  0  0  0
   13.0925   16.2583  -11.0071 H   0  0  0  0  0  0  0  0  0  0  0  0
   12.1840   15.3246  -17.0081 C   0  0  0  0  0  0  0  0  0  0  0  0
   11.8510   14.4674  -18.2239 C   0  0  0  0  0  0  0  0  0  0  0  0
   11.7759   12.9972  -17.8226 C   0  0  0  0  0  0  0  0  0  0  0  0
   12.8717   12.5941  -16.8294 C   0  0  0  0  0  0  0  0  0  0  0  0
   14.0076   13.6108  -16.7345 C   0  0  0  0  0  0  0  0  0  0  0  0
   13.5019   14.9594  -16.4883 N   0  0  0  0  0  0  0  0  0  0  0  0
    8.7703   12.9908  -14.3651 C   0  0  0  0  0  0  0  0  0  0  0  0
    7.6450   12.7708  -13.9419 O   0  0  0  0  0  0  0  0  0  0  0  0
    8.4429   13.0017  -16.6718 C   0  0  0  0  0  0  0  0  0  0  0  0
    9.2523   12.5920  -15.5678 O   0  0  0  0  0  0  0  0  0  0  0  0
  1  2  1  0  0  0
  2 14  2  0  0  0
  3 12  2  0  0  0
  4  5  1  0  0  0
  4 11  2  0  0  0
  6 13  1  0  0  0
  6  7  2  0  0  0
  8  9  2  0  0  0
  9 22  1  0  0  0
 10  5  2  0  0  0
 22 25  1  0  0  0
 24 25  1  0  0  0
 11 21  1  0  0  0
 16 21  1  0  0  0
 16 17  1  0  0  0
 17 18  1  0  0  0
 18 19  1  0  0  0
 19 20  1  0  0  0
 20 21  1  0  0  0
 13  3  1  0  0  0
  2 12  1  0  0  0
  3  4  1  0  0  0
  5  6  1  0  0  0
  7  8  1  0  0  0
  9 10  1  0  0  0
 22 23  2  0  0  0
 11 14  1  0  0  0
 13 15  1  0  0  0
M  END
> <minimizedAffinity>
-8.81802

$$$$
CHEMBL3715766


 25 28  0  0  0  0  0  0  0  0999 V2000
   16.7996   16.6497  -18.7014 C   0  0  0  0  0  0  0  0  0  0  0  0
   15.9053   16.2407  -17.5705 C   0  0  0  0  0  0  0  0  0  0  0  0
   15.2581   16.4164  -15.4489 C   0  0  0  0  0  0  0  0  0  0  0  0
   14.1918   15.5526  -15.6236 C   0  0  0  0  0  0  0  0  0  0  0  0
   13.4901   15.5155  -14.3751 C   0  0  0  0  0  0  0  0  0  0  0  0
   14.2060   16.2908  -13.4603 C   0  0  0  0  0  0  0  0  0  0  0  0
   13.8212   16.4305  -12.1209 C   0  0  0  0  0  0  0  0  0  0  0  0
   12.6680   15.7527  -11.6995 C   0  0  0  0  0  0  0  0  0  0  0  0
   11.9099   14.9901  -12.5943 C   0  0  0  0  0  0  0  0  0  0  0  0
   12.3039   14.8931  -13.9362 C   0  0  0  0  0  0  0  0  0  0  0  0
   14.0419   14.9773  -16.9018 C   0  0  0  0  0  0  0  0  0  0  0  0
   16.1512   16.7994  -16.3702 N   0  0  0  0  0  0  0  0  0  0  0  0
   15.2673   16.8342  -14.1478 N   0  0  0  0  0  0  0  0  0  0  0  0
   14.9096   15.3758  -17.8698 N   0  0  0  0  0  0  0  0  0  0  0  0
   15.9585   17.4629  -13.7686 H   0  0  0  0  0  0  0  0  0  0  0  0
   11.7008   14.5423  -17.3145 C   0  0  0  0  0  0  0  0  0  0  0  0
   10.7344   13.3846  -17.5375 C   0  0  0  0  0  0  0  0  0  0  0  0
   10.7583   12.4444  -16.3360 C   0  0  0  0  0  0  0  0  0  0  0  0
   12.1704   12.2190  -15.7839 C   0  0  0  0  0  0  0  0  0  0  0  0
   13.2739   12.6617  -16.7427 C   0  0  0  0  0  0  0  0  0  0  0  0
   13.0680   14.0338  -17.2014 N   0  0  0  0  0  0  0  0  0  0  0  0
   10.6911   14.2369  -12.1934 C   0  0  0  0  0  0  0  0  0  0  0  0
   10.2148   14.2806  -11.0686 O   0  0  0  0  0  0  0  0  0  0  0  0
    8.7630   13.6010  -13.3363 C   0  0  0  0  0  0  0  0  0  0  0  0
   10.1868   13.5328  -13.2364 O   0  0  0  0  0  0  0  0  0  0  0  0
  1  2  1  0  0  0
  2 14  2  0  0  0
  3 12  2  0  0  0
  4  5  1  0  0  0
  4 11  2  0  0  0
  6 13  1  0  0  0
  6  7  2  0  0  0
  8  9  2  0  0  0
  9 22  1  0  0  0
 10  5  2  0  0  0
 22 25  1  0  0  0
 24 25  1  0  0  0
 11 21  1  0  0  0
 16 21  1  0  0  0
 16 17  1  0  0  0
 17 18  1  0  0  0
 18 19  1  0  0  0
 19 20  1  0  0  0
 20 21  1  0  0  0
 13  3  1  0  0  0
  2 12  1  0  0  0
  3  4  1  0  0  0
  5  6  1  0  0  0
  7  8  1  0  0  0
  9 10  1  0  0  0
 22 23  2  0  0  0
 11 14  1  0  0  0
 13 15  1  0  0  0
M  END
> <minimizedAffinity>
-8.77039

$$$$
CHEMBL3715766


 25 28  0  0  0  0  0  0  0  0999 V2000
    8.3167   11.7896  -19.0166 C   0  0  0  0  0  0  0  0  0  0  0  0
    9.0054   12.4832  -17.8804 C   0  0  0  0  0  0  0  0  0  0  0  0
    9.1793   12.9478  -15.7114 C   0  0  0  0  0  0  0  0  0  0  0  0
   10.3579   13.6524  -15.8795 C   0  0  0  0  0  0  0  0  0  0  0  0
   10.7893   14.0411  -14.5698 C   0  0  0  0  0  0  0  0  0  0  0  0
    9.8110   13.6337  -13.6601 C   0  0  0  0  0  0  0  0  0  0  0  0
    9.8942   13.9011  -12.2878 C   0  0  0  0  0  0  0  0  0  0  0  0
   11.0124   14.6119  -11.8284 C   0  0  0  0  0  0  0  0  0  0  0  0
   12.0259   15.0113  -12.7060 C   0  0  0  0  0  0  0  0  0  0  0  0
   11.9291   14.7031  -14.0702 C   0  0  0  0  0  0  0  0  0  0  0  0
   10.8358   13.7874  -17.1988 C   0  0  0  0  0  0  0  0  0  0  0  0
    8.4523   12.3448  -16.6605 N   0  0  0  0  0  0  0  0  0  0  0  0
    8.8531   12.9615  -14.3844 N   0  0  0  0  0  0  0  0  0  0  0  0
   10.1410   13.1535  -18.1807 N   0  0  0  0  0  0  0  0  0  0  0  0
    8.0262   12.5232  -14.0086 H   0  0  0  0  0  0  0  0  0  0  0  0
   12.5187   14.2919  -18.8581 C   0  0  0  0  0  0  0  0  0  0  0  0
   13.8018   15.0958  -19.0348 C   0  0  0  0  0  0  0  0  0  0  0  0
   14.8499   14.6367  -18.0253 C   0  0  0  0  0  0  0  0  0  0  0  0
   14.2593   14.3579  -16.6385 C   0  0  0  0  0  0  0  0  0  0  0  0
   12.8587   14.9370  -16.4485 C   0  0  0  0  0  0  0  0  0  0  0  0
   11.9600   14.5333  -17.5277 N   0  0  0  0  0  0  0  0  0  0  0  0
   13.2214   15.7835  -12.2725 C   0  0  0  0  0  0  0  0  0  0  0  0
   13.7251   15.6747  -11.1641 O   0  0  0  0  0  0  0  0  0  0  0  0
   15.0795   16.4840  -13.4911 C   0  0  0  0  0  0  0  0  0  0  0  0
   13.6719   16.5863  -13.2678 O   0  0  0  0  0  0  0  0  0  0  0  0
  1  2  1  0  0  0
  2 14  2  0  0  0
  3 12  2  0  0  0
  4  5  1  0  0  0
  4 11  2  0  0  0
  6 13  1  0  0  0
  6  7  2  0  0  0
  8  9  2  0  0  0
  9 22  1  0  0  0
 10  5  2  0  0  0
 22 25  1  0  0  0
 24 25  1  0  0  0
 11 21  1  0  0  0
 16 21  1  0  0  0
 16 17  1  0  0  0
 17 18  1  0  0  0
 18 19  1  0  0  0
 19 20  1  0  0  0
 20 21  1  0  0  0
 13  3  1  0  0  0
  2 12  1  0  0  0
  3  4  1  0  0  0
  5  6  1  0  0  0
  7  8  1  0  0  0
  9 10  1  0  0  0
 22 23  2  0  0  0
 11 14  1  0  0  0
 13 15  1  0  0  0
M  END
> <minimizedAffinity>
-8.26527

$$$$
CHEMBL3715766


 25 28  0  0  0  0  0  0  0  0999 V2000
    7.7680   11.3935  -18.8165 C   0  0  0  0  0  0  0  0  0  0  0  0
    8.7854   12.2411  -18.1146 C   0  0  0  0  0  0  0  0  0  0  0  0
    9.5704   13.1954  -16.2642 C   0  0  0  0  0  0  0  0  0  0  0  0
   10.7075   13.6639  -16.8976 C   0  0  0  0  0  0  0  0  0  0  0  0
   11.5027   14.2980  -15.8886 C   0  0  0  0  0  0  0  0  0  0  0  0
   10.7792   14.2685  -14.6943 C   0  0  0  0  0  0  0  0  0  0  0  0
   11.2481   14.8506  -13.5099 C   0  0  0  0  0  0  0  0  0  0  0  0
   12.4969   15.4879  -13.5462 C   0  0  0  0  0  0  0  0  0  0  0  0
   13.2623   15.5126  -14.7168 C   0  0  0  0  0  0  0  0  0  0  0  0
   12.7794   14.8953  -15.8793 C   0  0  0  0  0  0  0  0  0  0  0  0
   10.8205   13.4019  -18.2781 C   0  0  0  0  0  0  0  0  0  0  0  0
    8.5731   12.4861  -16.8075 N   0  0  0  0  0  0  0  0  0  0  0  0
    9.6158   13.5806  -14.9538 N   0  0  0  0  0  0  0  0  0  0  0  0
    9.8431   12.6503  -18.8513 N   0  0  0  0  0  0  0  0  0  0  0  0
    8.8916   13.3690  -14.2847 H   0  0  0  0  0  0  0  0  0  0  0  0
   11.4770   14.6051  -20.2684 C   0  0  0  0  0  0  0  0  0  0  0  0
   12.7184   14.9702  -21.0742 C   0  0  0  0  0  0  0  0  0  0  0  0
   13.4364   13.7037  -21.5314 C   0  0  0  0  0  0  0  0  0  0  0  0
   13.4683   12.6148  -20.4529 C   0  0  0  0  0  0  0  0  0  0  0  0
   13.1217   13.1326  -19.0583 C   0  0  0  0  0  0  0  0  0  0  0  0
   11.8650   13.8782  -19.0594 N   0  0  0  0  0  0  0  0  0  0  0  0
   14.5826   16.1915  -14.8127 C   0  0  0  0  0  0  0  0  0  0  0  0
   15.1829   16.6319  -13.8433 O   0  0  0  0  0  0  0  0  0  0  0  0
   15.9961   17.2447  -16.3363 C   0  0  0  0  0  0  0  0  0  0  0  0
   15.0212   16.2282  -16.0950 O   0  0  0  0  0  0  0  0  0  0  0  0
  1  2  1  0  0  0
  2 14  2  0  0  0
  3 12  2  0  0  0
  4  5  1  0  0  0
  4 11  2  0  0  0
  6 13  1  0  0  0
  6  7  2  0  0  0
  8  9  2  0  0  0
  9 22  1  0  0  0
 10  5  2  0  0  0
 22 25  1  0  0  0
 24 25  1  0  0  0
 11 21  1  0  0  0
 16 21  1  0  0  0
 16 17  1  0  0  0
 17 18  1  0  0  0
 18 19  1  0  0  0
 19 20  1  0  0  0
 20 21  1  0  0  0
 13  3  1  0  0  0
  2 12  1  0  0  0
  3  4  1  0  0  0
  5  6  1  0  0  0
  7  8  1  0  0  0
  9 10  1  0  0  0
 22 23  2  0  0  0
 11 14  1  0  0  0
 13 15  1  0  0  0
M  END
> <minimizedAffinity>
-8.24650

$$$$
CHEMBL3715766


 25 28  0  0  0  0  0  0  0  0999 V2000
   10.6152   11.6278  -21.8573 C   0  0  0  0  0  0  0  0  0  0  0  0
   11.2487   12.2597  -20.6550 C   0  0  0  0  0  0  0  0  0  0  0  0
   12.8699   13.4692  -19.7277 C   0  0  0  0  0  0  0  0  0  0  0  0
   12.2631   13.4680  -18.4845 C   0  0  0  0  0  0  0  0  0  0  0  0
   13.0794   14.2811  -17.6330 C   0  0  0  0  0  0  0  0  0  0  0  0
   14.2001   14.6759  -18.3670 C   0  0  0  0  0  0  0  0  0  0  0  0
   15.2334   15.4449  -17.8171 C   0  0  0  0  0  0  0  0  0  0  0  0
   15.1210   15.8212  -16.4707 C   0  0  0  0  0  0  0  0  0  0  0  0
   13.9996   15.4682  -15.7126 C   0  0  0  0  0  0  0  0  0  0  0  0
   12.9672   14.7229  -16.2992 C   0  0  0  0  0  0  0  0  0  0  0  0
   11.0593   12.7442  -18.3648 C   0  0  0  0  0  0  0  0  0  0  0  0
   12.4248   12.8866  -20.8482 N   0  0  0  0  0  0  0  0  0  0  0  0
   14.0357   14.1766  -19.6389 N   0  0  0  0  0  0  0  0  0  0  0  0
   10.5608   12.1736  -19.4939 N   0  0  0  0  0  0  0  0  0  0  0  0
   14.6669   14.3113  -20.4138 H   0  0  0  0  0  0  0  0  0  0  0  0
    9.7089   13.7823  -16.6505 C   0  0  0  0  0  0  0  0  0  0  0  0
    9.1047   13.4895  -15.2819 C   0  0  0  0  0  0  0  0  0  0  0  0
   10.2079   13.1430  -14.2863 C   0  0  0  0  0  0  0  0  0  0  0  0
   11.2986   12.2522  -14.8919 C   0  0  0  0  0  0  0  0  0  0  0  0
   10.8864   11.6011  -16.2107 C   0  0  0  0  0  0  0  0  0  0  0  0
   10.3821   12.5885  -17.1625 N   0  0  0  0  0  0  0  0  0  0  0  0
   13.8415   15.8254  -14.2770 C   0  0  0  0  0  0  0  0  0  0  0  0
   14.7651   16.2115  -13.5757 O   0  0  0  0  0  0  0  0  0  0  0  0
   12.3994   15.6177  -12.4589 C   0  0  0  0  0  0  0  0  0  0  0  0
   12.5534   15.6861  -13.8779 O   0  0  0  0  0  0  0  0  0  0  0  0
  1  2  1  0  0  0
  2 14  2  0  0  0
  3 12  2  0  0  0
  4  5  1  0  0  0
  4 11  2  0  0  0
  6 13  1  0  0  0
  6  7  2  0  0  0
  8  9  2  0  0  0
  9 22  1  0  0  0
 10  5  2  0  0  0
 22 25  1  0  0  0
 24 25  1  0  0  0
 11 21  1  0  0  0
 16 21  1  0  0  0
 16 17  1  0  0  0
 17 18  1  0  0  0
 18 19  1  0  0  0
 19 20  1  0  0  0
 20 21  1  0  0  0
 13  3  1  0  0  0
  2 12  1  0  0  0
  3  4  1  0  0  0
  5  6  1  0  0  0
  7  8  1  0  0  0
  9 10  1  0  0  0
 22 23  2  0  0  0
 11 14  1  0  0  0
 13 15  1  0  0  0
M  END
> <minimizedAffinity>
-7.98109

$$$$
CHEMBL3715766


 25 28  0  0  0  0  0  0  0  0999 V2000
    6.2181   10.4382  -19.6207 C   0  0  0  0  0  0  0  0  0  0  0  0
    7.5857   11.0145  -19.4114 C   0  0  0  0  0  0  0  0  0  0  0  0
    9.5220   11.7557  -20.2188 C   0  0  0  0  0  0  0  0  0  0  0  0
    9.9725   12.1602  -18.9749 C   0  0  0  0  0  0  0  0  0  0  0  0
   11.2434   12.7865  -19.1868 C   0  0  0  0  0  0  0  0  0  0  0  0
   11.5597   12.6620  -20.5414 C   0  0  0  0  0  0  0  0  0  0  0  0
   12.7647   13.1260  -21.0838 C   0  0  0  0  0  0  0  0  0  0  0  0
   13.6802   13.7349  -20.2133 C   0  0  0  0  0  0  0  0  0  0  0  0
   13.3858   13.9025  -18.8561 C   0  0  0  0  0  0  0  0  0  0  0  0
   12.1585   13.4543  -18.3479 C   0  0  0  0  0  0  0  0  0  0  0  0
    9.1251   11.9052  -17.8775 C   0  0  0  0  0  0  0  0  0  0  0  0
    8.3500   11.1765  -20.5082 N   0  0  0  0  0  0  0  0  0  0  0  0
   10.4876   12.0425  -21.1423 N   0  0  0  0  0  0  0  0  0  0  0  0
    7.9111   11.3534  -18.1433 N   0  0  0  0  0  0  0  0  0  0  0  0
   10.4004   11.8313  -22.1245 H   0  0  0  0  0  0  0  0  0  0  0  0
    9.5175   13.5990  -16.1991 C   0  0  0  0  0  0  0  0  0  0  0  0
   10.0217   13.7521  -14.7687 C   0  0  0  0  0  0  0  0  0  0  0  0
   11.4504   13.2279  -14.6587 C   0  0  0  0  0  0  0  0  0  0  0  0
   11.6753   11.9392  -15.4577 C   0  0  0  0  0  0  0  0  0  0  0  0
   10.3773   11.2543  -15.8813 C   0  0  0  0  0  0  0  0  0  0  0  0
    9.4784   12.1826  -16.5635 N   0  0  0  0  0  0  0  0  0  0  0  0
   14.3298   14.5235  -17.8883 C   0  0  0  0  0  0  0  0  0  0  0  0
   15.5448   14.4807  -18.0141 O   0  0  0  0  0  0  0  0  0  0  0  0
   14.4324   15.2924  -15.6913 C   0  0  0  0  0  0  0  0  0  0  0  0
   13.6625   15.1469  -16.8862 O   0  0  0  0  0  0  0  0  0  0  0  0
  1  2  1  0  0  0
  2 14  2  0  0  0
  3 12  2  0  0  0
  4  5  1  0  0  0
  4 11  2  0  0  0
  6 13  1  0  0  0
  6  7  2  0  0  0
  8  9  2  0  0  0
  9 22  1  0  0  0
 10  5  2  0  0  0
 22 25  1  0  0  0
 24 25  1  0  0  0
 11 21  1  0  0  0
 16 21  1  0  0  0
 16 17  1  0  0  0
 17 18  1  0  0  0
 18 19  1  0  0  0
 19 20  1  0  0  0
 20 21  1  0  0  0
 13  3  1  0  0  0
  2 12  1  0  0  0
  3  4  1  0  0  0
  5  6  1  0  0  0
  7  8  1  0  0  0
  9 10  1  0  0  0
 22 23  2  0  0  0
 11 14  1  0  0  0
 13 15  1  0  0  0
M  END
> <minimizedAffinity>
-7.70859

$$$$
CHEMBL3715766


 25 28  0  0  0  0  0  0  0  0999 V2000
   10.3619   14.1801  -10.9860 C   0  0  0  0  0  0  0  0  0  0  0  0
   10.4408   13.9591  -12.4662 C   0  0  0  0  0  0  0  0  0  0  0  0
    9.4873   13.3977  -14.3966 C   0  0  0  0  0  0  0  0  0  0  0  0
   10.6196   13.7013  -15.1311 C   0  0  0  0  0  0  0  0  0  0  0  0
   10.2766   13.5022  -16.5077 C   0  0  0  0  0  0  0  0  0  0  0  0
    8.9740   13.0005  -16.5544 C   0  0  0  0  0  0  0  0  0  0  0  0
    8.3409   12.6466  -17.7525 C   0  0  0  0  0  0  0  0  0  0  0  0
    9.0632   12.8068  -18.9440 C   0  0  0  0  0  0  0  0  0  0  0  0
   10.3593   13.3328  -18.9385 C   0  0  0  0  0  0  0  0  0  0  0  0
   10.9558   13.7060  -17.7259 C   0  0  0  0  0  0  0  0  0  0  0  0
   11.7511   14.1301  -14.4078 C   0  0  0  0  0  0  0  0  0  0  0  0
    9.3294   13.4979  -13.0707 N   0  0  0  0  0  0  0  0  0  0  0  0
    8.5187   12.9611  -15.2562 N   0  0  0  0  0  0  0  0  0  0  0  0
   11.6110   14.2795  -13.0636 N   0  0  0  0  0  0  0  0  0  0  0  0
    7.6009   12.6670  -14.9595 H   0  0  0  0  0  0  0  0  0  0  0  0
   13.1660   15.7539  -15.5037 C   0  0  0  0  0  0  0  0  0  0  0  0
   14.5075   15.8619  -16.2198 C   0  0  0  0  0  0  0  0  0  0  0  0
   14.5287   14.9367  -17.4330 C   0  0  0  0  0  0  0  0  0  0  0  0
   13.8693   13.5802  -17.1593 C   0  0  0  0  0  0  0  0  0  0  0  0
   13.6683   13.2928  -15.6727 C   0  0  0  0  0  0  0  0  0  0  0  0
   12.9785   14.3926  -15.0017 N   0  0  0  0  0  0  0  0  0  0  0  0
   11.1742   13.5043  -20.1715 C   0  0  0  0  0  0  0  0  0  0  0  0
   11.2166   14.5467  -20.8084 O   0  0  0  0  0  0  0  0  0  0  0  0
   13.2418   12.6032  -20.7557 C   0  0  0  0  0  0  0  0  0  0  0  0
   11.8620   12.3732  -20.4638 O   0  0  0  0  0  0  0  0  0  0  0  0
  1  2  1  0  0  0
  2 14  2  0  0  0
  3 12  2  0  0  0
  4  5  1  0  0  0
  4 11  2  0  0  0
  6 13  1  0  0  0
  6  7  2  0  0  0
  8  9  2  0  0  0
  9 22  1  0  0  0
 10  5  2  0  0  0
 22 25  1  0  0  0
 24 25  1  0  0  0
 11 21  1  0  0  0
 16 21  1  0  0  0
 16 17  1  0  0  0
 17 18  1  0  0  0
 18 19  1  0  0  0
 19 20  1  0  0  0
 20 21  1  0  0  0
 13  3  1  0  0  0
  2 12  1  0  0  0
  3  4  1  0  0  0
  5  6  1  0  0  0
  7  8  1  0  0  0
  9 10  1  0  0  0
 22 23  2  0  0  0
 11 14  1  0  0  0
 13 15  1  0  0  0
M  END
> <minimizedAffinity>
-7.70313

$$$$
CHEMBL3669559


 33 38  0  0  0  0  0  0  0  0999 V2000
   12.7005   12.1213  -16.5944 O   0  0  0  0  0  0  0  0  0  0  0  0
   11.8441   12.6563  -17.2961 C   0  0  0  0  0  0  0  0  0  0  0  0
   11.0937   12.8280  -19.6414 C   0  0  0  0  0  0  0  0  0  0  0  0
    9.7099   13.2623  -19.1957 C   0  0  0  0  0  0  0  0  0  0  0  0
    9.3911   12.6939  -17.8154 C   0  0  0  0  0  0  0  0  0  0  0  0
   10.4546   13.0851  -16.7642 C   0  0  0  0  0  0  0  0  0  0  0  0
   10.4614   14.6281  -16.5426 C   0  0  0  0  0  0  0  0  0  0  0  0
   10.3578   15.0556  -15.0768 C   0  0  0  0  0  0  0  0  0  0  0  0
   11.0537   12.8044  -14.2815 C   0  0  0  0  0  0  0  0  0  0  0  0
   10.1368   12.3654  -15.4332 C   0  0  0  0  0  0  0  0  0  0  0  0
   12.0999   13.0112  -18.6138 N   0  0  0  0  0  0  0  0  0  0  0  0
   11.2466   14.2443  -14.2620 N   0  0  0  0  0  0  0  0  0  0  0  0
   12.1819   14.8695  -13.4487 C   0  0  0  0  0  0  0  0  0  0  0  0
   12.8263   15.4308  -11.2535 C   0  0  0  0  0  0  0  0  0  0  0  0
   14.1246   16.1597  -12.8770 C   0  0  0  0  0  0  0  0  0  0  0  0
   15.1009   16.6940  -14.8173 C   0  0  0  0  0  0  0  0  0  0  0  0
   13.9882   15.9301  -15.1009 C   0  0  0  0  0  0  0  0  0  0  0  0
   13.3421   15.5790  -13.8717 C   0  0  0  0  0  0  0  0  0  0  0  0
   11.9789   14.8163  -12.0962 N   0  0  0  0  0  0  0  0  0  0  0  0
   13.9287   16.1261  -11.5528 N   0  0  0  0  0  0  0  0  0  0  0  0
   15.1699   16.8210  -13.4594 N   0  0  0  0  0  0  0  0  0  0  0  0
   15.8667   17.3315  -12.9379 H   0  0  0  0  0  0  0  0  0  0  0  0
   13.4757   13.2814  -19.0144 C   0  0  0  0  0  0  0  0  0  0  0  0
   13.4028   14.0877  -20.2769 C   0  0  0  0  0  0  0  0  0  0  0  0
   13.3374   15.4667  -20.3783 C   0  0  0  0  0  0  0  0  0  0  0  0
   13.5230   14.6764  -22.4794 C   0  0  0  0  0  0  0  0  0  0  0  0
   13.6671   14.5455  -23.8663 C   0  0  0  0  0  0  0  0  0  0  0  0
   13.7622   13.2531  -24.3893 C   0  0  0  0  0  0  0  0  0  0  0  0
   13.7161   12.1389  -23.5565 C   0  0  0  0  0  0  0  0  0  0  0  0
   13.5902   12.2885  -22.1718 C   0  0  0  0  0  0  0  0  0  0  0  0
   13.4885   13.5807  -21.6167 C   0  0  0  0  0  0  0  0  0  0  0  0
   13.4221   15.8052  -21.7021 N   0  0  0  0  0  0  0  0  0  0  0  0
   13.4434   16.7479  -22.0640 H   0  0  0  0  0  0  0  0  0  0  0  0
  2 11  1  0  0  0
 23 11  1  0  0  0
 23 24  1  0  0  0
 25 32  1  0  0  0
 27 28  2  0  0  0
 29 30  2  0  0  0
 31 24  1  0  0  0
 31 26  2  0  0  0
  3 11  1  0  0  0
  3  4  1  0  0  0
  4  5  1  0  0  0
  5  6  1  0  0  0
  6  7  1  0  0  0
  6  2  1  0  0  0
  7  8  1  0  0  0
  8 12  1  0  0  0
  9 12  1  0  0  0
  9 10  1  0  0  0
 10  6  1  0  0  0
 14 19  2  0  0  0
 15 20  2  0  0  0
 15 21  1  0  0  0
 17 18  1  0  0  0
 18 13  2  0  0  0
 32 26  1  0  0  0
 12 13  1  0  0  0
 21 16  1  0  0  0
  2  1  2  0  0  0
 24 25  2  0  0  0
 26 27  1  0  0  0
 28 29  1  0  0  0
 30 31  1  0  0  0
 13 19  1  0  0  0
 14 20  1  0  0  0
 16 17  2  0  0  0
 18 15  1  0  0  0
 32 33  1  0  0  0
 21 22  1  0  0  0
M  END
> <minimizedAffinity>
-9.22614

$$$$
CHEMBL3669559


 33 38  0  0  0  0  0  0  0  0999 V2000
   13.2909   12.5272  -16.6458 O   0  0  0  0  0  0  0  0  0  0  0  0
   12.9774   13.3940  -17.4597 C   0  0  0  0  0  0  0  0  0  0  0  0
   13.7194   14.4180  -19.5795 C   0  0  0  0  0  0  0  0  0  0  0  0
   12.3160   14.9222  -19.8592 C   0  0  0  0  0  0  0  0  0  0  0  0
   11.2815   14.0140  -19.1998 C   0  0  0  0  0  0  0  0  0  0  0  0
   11.5195   13.8671  -17.6796 C   0  0  0  0  0  0  0  0  0  0  0  0
   11.3278   15.2376  -16.9622 C   0  0  0  0  0  0  0  0  0  0  0  0
   10.3744   15.1957  -15.7657 C   0  0  0  0  0  0  0  0  0  0  0  0
   10.5795   12.7243  -15.5792 C   0  0  0  0  0  0  0  0  0  0  0  0
   10.5212   12.8328  -17.1104 C   0  0  0  0  0  0  0  0  0  0  0  0
   13.9338   14.0942  -18.1827 N   0  0  0  0  0  0  0  0  0  0  0  0
   10.6610   14.0298  -14.9468 N   0  0  0  0  0  0  0  0  0  0  0  0
   10.9222   14.1980  -13.5939 C   0  0  0  0  0  0  0  0  0  0  0  0
   10.2226   13.7841  -11.3828 C   0  0  0  0  0  0  0  0  0  0  0  0
   12.0540   14.9835  -11.6273 C   0  0  0  0  0  0  0  0  0  0  0  0
   13.8119   16.1585  -12.3573 C   0  0  0  0  0  0  0  0  0  0  0  0
   13.1442   15.6684  -13.4601 C   0  0  0  0  0  0  0  0  0  0  0  0
   12.0094   14.9149  -13.0173 C   0  0  0  0  0  0  0  0  0  0  0  0
   10.0487   13.6298  -12.7064 N   0  0  0  0  0  0  0  0  0  0  0  0
   11.1985   14.4439  -10.7499 N   0  0  0  0  0  0  0  0  0  0  0  0
   13.1362   15.7295  -11.2509 N   0  0  0  0  0  0  0  0  0  0  0  0
   13.3686   15.9293  -10.2895 H   0  0  0  0  0  0  0  0  0  0  0  0
   15.2732   14.2352  -17.6237 C   0  0  0  0  0  0  0  0  0  0  0  0
   15.3966   15.6571  -17.1632 C   0  0  0  0  0  0  0  0  0  0  0  0
   14.8264   16.2156  -16.0321 C   0  0  0  0  0  0  0  0  0  0  0  0
   16.1454   17.8018  -16.9362 C   0  0  0  0  0  0  0  0  0  0  0  0
   16.8759   18.9699  -17.1882 C   0  0  0  0  0  0  0  0  0  0  0  0
   17.6873   18.9945  -18.3258 C   0  0  0  0  0  0  0  0  0  0  0  0
   17.7640   17.8940  -19.1741 C   0  0  0  0  0  0  0  0  0  0  0  0
   17.0418   16.7288  -18.8975 C   0  0  0  0  0  0  0  0  0  0  0  0
   16.2121   16.6769  -17.7585 C   0  0  0  0  0  0  0  0  0  0  0  0
   15.2929   17.4961  -15.9026 N   0  0  0  0  0  0  0  0  0  0  0  0
   15.0753   18.1231  -15.1414 H   0  0  0  0  0  0  0  0  0  0  0  0
  2 11  1  0  0  0
 23 11  1  0  0  0
 23 24  1  0  0  0
 25 32  1  0  0  0
 27 28  2  0  0  0
 29 30  2  0  0  0
 31 24  1  0  0  0
 31 26  2  0  0  0
  3 11  1  0  0  0
  3  4  1  0  0  0
  4  5  1  0  0  0
  5  6  1  0  0  0
  6  7  1  0  0  0
  6  2  1  0  0  0
  7  8  1  0  0  0
  8 12  1  0  0  0
  9 12  1  0  0  0
  9 10  1  0  0  0
 10  6  1  0  0  0
 14 19  2  0  0  0
 15 20  2  0  0  0
 15 21  1  0  0  0
 17 18  1  0  0  0
 18 13  2  0  0  0
 32 26  1  0  0  0
 12 13  1  0  0  0
 21 16  1  0  0  0
  2  1  2  0  0  0
 24 25  2  0  0  0
 26 27  1  0  0  0
 28 29  1  0  0  0
 30 31  1  0  0  0
 13 19  1  0  0  0
 14 20  1  0  0  0
 16 17  2  0  0  0
 18 15  1  0  0  0
 32 33  1  0  0  0
 21 22  1  0  0  0
M  END
> <minimizedAffinity>
-9.13843

$$$$
CHEMBL3669559


 33 38  0  0  0  0  0  0  0  0999 V2000
    9.8426   14.5514  -18.5106 O   0  0  0  0  0  0  0  0  0  0  0  0
   10.3298   13.7001  -17.7689 C   0  0  0  0  0  0  0  0  0  0  0  0
   10.1925   12.8365  -15.4606 C   0  0  0  0  0  0  0  0  0  0  0  0
   10.8046   11.5159  -15.8889 C   0  0  0  0  0  0  0  0  0  0  0  0
   10.4886   11.2319  -17.3550 C   0  0  0  0  0  0  0  0  0  0  0  0
   10.9506   12.3783  -18.2834 C   0  0  0  0  0  0  0  0  0  0  0  0
   12.5032   12.5131  -18.2531 C   0  0  0  0  0  0  0  0  0  0  0  0
   13.1629   12.5229  -19.6340 C   0  0  0  0  0  0  0  0  0  0  0  0
   11.0148   13.0907  -20.7511 C   0  0  0  0  0  0  0  0  0  0  0  0
   10.4778   12.0812  -19.7251 C   0  0  0  0  0  0  0  0  0  0  0  0
   10.4508   13.9088  -16.4015 N   0  0  0  0  0  0  0  0  0  0  0  0
   12.4188   13.3919  -20.5303 N   0  0  0  0  0  0  0  0  0  0  0  0
   13.0843   14.4148  -21.1918 C   0  0  0  0  0  0  0  0  0  0  0  0
   13.9999   16.5814  -21.0608 C   0  0  0  0  0  0  0  0  0  0  0  0
   14.1114   15.5828  -23.0211 C   0  0  0  0  0  0  0  0  0  0  0  0
   13.9711   14.2115  -24.7828 C   0  0  0  0  0  0  0  0  0  0  0  0
   13.4101   13.5669  -23.7002 C   0  0  0  0  0  0  0  0  0  0  0  0
   13.4840   14.4289  -22.5587 C   0  0  0  0  0  0  0  0  0  0  0  0
   13.3883   15.5392  -20.4729 N   0  0  0  0  0  0  0  0  0  0  0  0
   14.4015   16.6933  -22.3315 N   0  0  0  0  0  0  0  0  0  0  0  0
   14.3950   15.4354  -24.3505 N   0  0  0  0  0  0  0  0  0  0  0  0
   14.8400   16.1490  -24.9081 H   0  0  0  0  0  0  0  0  0  0  0  0
   10.5398   15.2768  -15.9046 C   0  0  0  0  0  0  0  0  0  0  0  0
   11.9711   15.4976  -15.5147 C   0  0  0  0  0  0  0  0  0  0  0  0
   13.0429   15.6945  -16.3685 C   0  0  0  0  0  0  0  0  0  0  0  0
   13.8281   15.9770  -14.2763 C   0  0  0  0  0  0  0  0  0  0  0  0
   14.6226   16.2551  -13.1570 C   0  0  0  0  0  0  0  0  0  0  0  0
   14.0205   16.1755  -11.8984 C   0  0  0  0  0  0  0  0  0  0  0  0
   12.6780   15.8326  -11.7677 C   0  0  0  0  0  0  0  0  0  0  0  0
   11.8945   15.5759  -12.8973 C   0  0  0  0  0  0  0  0  0  0  0  0
   12.4765   15.6454  -14.1798 C   0  0  0  0  0  0  0  0  0  0  0  0
   14.1454   15.9920  -15.6133 N   0  0  0  0  0  0  0  0  0  0  0  0
   15.0579   16.2250  -15.9781 H   0  0  0  0  0  0  0  0  0  0  0  0
  2 11  1  0  0  0
 23 11  1  0  0  0
 23 24  1  0  0  0
 25 32  1  0  0  0
 27 28  2  0  0  0
 29 30  2  0  0  0
 31 24  1  0  0  0
 31 26  2  0  0  0
  3 11  1  0  0  0
  3  4  1  0  0  0
  4  5  1  0  0  0
  5  6  1  0  0  0
  6  7  1  0  0  0
  6  2  1  0  0  0
  7  8  1  0  0  0
  8 12  1  0  0  0
  9 12  1  0  0  0
  9 10  1  0  0  0
 10  6  1  0  0  0
 14 19  2  0  0  0
 15 20  2  0  0  0
 15 21  1  0  0  0
 17 18  1  0  0  0
 18 13  2  0  0  0
 32 26  1  0  0  0
 12 13  1  0  0  0
 21 16  1  0  0  0
  2  1  2  0  0  0
 24 25  2  0  0  0
 26 27  1  0  0  0
 28 29  1  0  0  0
 30 31  1  0  0  0
 13 19  1  0  0  0
 14 20  1  0  0  0
 16 17  2  0  0  0
 18 15  1  0  0  0
 32 33  1  0  0  0
 21 22  1  0  0  0
M  END
> <minimizedAffinity>
-8.76877

$$$$
CHEMBL3669559


 33 38  0  0  0  0  0  0  0  0999 V2000
   16.7258   17.7277  -16.8015 O   0  0  0  0  0  0  0  0  0  0  0  0
   16.7035   17.5708  -18.0210 C   0  0  0  0  0  0  0  0  0  0  0  0
   15.3340   16.5815  -19.8206 C   0  0  0  0  0  0  0  0  0  0  0  0
   15.9975   17.4733  -20.8534 C   0  0  0  0  0  0  0  0  0  0  0  0
   16.4729   18.7730  -20.2096 C   0  0  0  0  0  0  0  0  0  0  0  0
   17.4191   18.5191  -19.0139 C   0  0  0  0  0  0  0  0  0  0  0  0
   18.7346   17.8349  -19.4947 C   0  0  0  0  0  0  0  0  0  0  0  0
   20.0152   18.5287  -19.0242 C   0  0  0  0  0  0  0  0  0  0  0  0
   18.8000   19.7395  -17.2237 C   0  0  0  0  0  0  0  0  0  0  0  0
   17.7475   19.8689  -18.3351 C   0  0  0  0  0  0  0  0  0  0  0  0
   16.1086   16.4585  -18.6014 N   0  0  0  0  0  0  0  0  0  0  0  0
   19.9000   18.8761  -17.6178 N   0  0  0  0  0  0  0  0  0  0  0  0
   20.8734   18.4407  -16.7290 C   0  0  0  0  0  0  0  0  0  0  0  0
   22.0985   18.8917  -14.7680 C   0  0  0  0  0  0  0  0  0  0  0  0
   22.5930   17.0263  -15.8302 C   0  0  0  0  0  0  0  0  0  0  0  0
   22.7624   15.2947  -17.2361 C   0  0  0  0  0  0  0  0  0  0  0  0
   21.7654   16.1239  -17.7058 C   0  0  0  0  0  0  0  0  0  0  0  0
   21.6412   17.2449  -16.8228 C   0  0  0  0  0  0  0  0  0  0  0  0
   21.1431   19.2360  -15.6481 N   0  0  0  0  0  0  0  0  0  0  0  0
   22.8752   17.8030  -14.7766 N   0  0  0  0  0  0  0  0  0  0  0  0
   23.2527   15.8579  -16.0929 N   0  0  0  0  0  0  0  0  0  0  0  0
   23.9981   15.4968  -15.5166 H   0  0  0  0  0  0  0  0  0  0  0  0
   16.0097   15.2287  -17.8241 C   0  0  0  0  0  0  0  0  0  0  0  0
   14.5800   15.1139  -17.3859 C   0  0  0  0  0  0  0  0  0  0  0  0
   13.5288   14.5838  -18.1142 C   0  0  0  0  0  0  0  0  0  0  0  0
   12.7192   15.0506  -16.0648 C   0  0  0  0  0  0  0  0  0  0  0  0
   11.9158   15.1690  -14.9237 C   0  0  0  0  0  0  0  0  0  0  0  0
   12.4948   15.7201  -13.7774 C   0  0  0  0  0  0  0  0  0  0  0  0
   13.8235   16.1338  -13.7749 C   0  0  0  0  0  0  0  0  0  0  0  0
   14.6167   15.9914  -14.9178 C   0  0  0  0  0  0  0  0  0  0  0  0
   14.0579   15.4420  -16.0901 C   0  0  0  0  0  0  0  0  0  0  0  0
   12.4241   14.5414  -17.3066 N   0  0  0  0  0  0  0  0  0  0  0  0
   11.5254   14.1603  -17.5655 H   0  0  0  0  0  0  0  0  0  0  0  0
  2 11  1  0  0  0
 23 11  1  0  0  0
 23 24  1  0  0  0
 25 32  1  0  0  0
 27 28  2  0  0  0
 29 30  2  0  0  0
 31 24  1  0  0  0
 31 26  2  0  0  0
  3 11  1  0  0  0
  3  4  1  0  0  0
  4  5  1  0  0  0
  5  6  1  0  0  0
  6  7  1  0  0  0
  6  2  1  0  0  0
  7  8  1  0  0  0
  8 12  1  0  0  0
  9 12  1  0  0  0
  9 10  1  0  0  0
 10  6  1  0  0  0
 14 19  2  0  0  0
 15 20  2  0  0  0
 15 21  1  0  0  0
 17 18  1  0  0  0
 18 13  2  0  0  0
 32 26  1  0  0  0
 12 13  1  0  0  0
 21 16  1  0  0  0
  2  1  2  0  0  0
 24 25  2  0  0  0
 26 27  1  0  0  0
 28 29  1  0  0  0
 30 31  1  0  0  0
 13 19  1  0  0  0
 14 20  1  0  0  0
 16 17  2  0  0  0
 18 15  1  0  0  0
 32 33  1  0  0  0
 21 22  1  0  0  0
M  END
> <minimizedAffinity>
-8.16125

$$$$
CHEMBL3669559


 33 38  0  0  0  0  0  0  0  0999 V2000
   15.8945   19.8868  -17.4166 O   0  0  0  0  0  0  0  0  0  0  0  0
   16.4858   19.4924  -18.4201 C   0  0  0  0  0  0  0  0  0  0  0  0
   17.2798   20.2623  -20.6269 C   0  0  0  0  0  0  0  0  0  0  0  0
   18.2905   19.1323  -20.6881 C   0  0  0  0  0  0  0  0  0  0  0  0
   18.7085   18.7134  -19.2811 C   0  0  0  0  0  0  0  0  0  0  0  0
   17.4966   18.3196  -18.4061 C   0  0  0  0  0  0  0  0  0  0  0  0
   16.7959   17.0522  -18.9827 C   0  0  0  0  0  0  0  0  0  0  0  0
   16.5778   15.9324  -17.9625 C   0  0  0  0  0  0  0  0  0  0  0  0
   16.8741   17.4977  -16.0528 C   0  0  0  0  0  0  0  0  0  0  0  0
   17.9842   18.0401  -16.9657 C   0  0  0  0  0  0  0  0  0  0  0  0
   16.2124   20.0127  -19.6781 N   0  0  0  0  0  0  0  0  0  0  0  0
   16.0691   16.4890  -16.7201 N   0  0  0  0  0  0  0  0  0  0  0  0
   14.8896   15.9894  -16.1851 C   0  0  0  0  0  0  0  0  0  0  0  0
   12.8516   14.8807  -16.5937 C   0  0  0  0  0  0  0  0  0  0  0  0
   13.2213   15.5283  -14.5209 C   0  0  0  0  0  0  0  0  0  0  0  0
   14.0082   16.3809  -12.6084 C   0  0  0  0  0  0  0  0  0  0  0  0
   14.9506   16.6054  -13.5901 C   0  0  0  0  0  0  0  0  0  0  0  0
   14.4662   16.0715  -14.8278 C   0  0  0  0  0  0  0  0  0  0  0  0
   14.0271   15.3563  -17.0387 N   0  0  0  0  0  0  0  0  0  0  0  0
   12.3634   14.9194  -15.3493 N   0  0  0  0  0  0  0  0  0  0  0  0
   12.9643   15.7220  -13.1920 N   0  0  0  0  0  0  0  0  0  0  0  0
   12.1131   15.4237  -12.7395 H   0  0  0  0  0  0  0  0  0  0  0  0
   14.8965   20.5883  -19.9296 C   0  0  0  0  0  0  0  0  0  0  0  0
   14.2276   19.7014  -20.9373 C   0  0  0  0  0  0  0  0  0  0  0  0
   14.7567   18.5638  -21.5224 C   0  0  0  0  0  0  0  0  0  0  0  0
   12.6196   18.7095  -22.2188 C   0  0  0  0  0  0  0  0  0  0  0  0
   11.3675   18.4684  -22.7981 C   0  0  0  0  0  0  0  0  0  0  0  0
   10.3499   19.3940  -22.5516 C   0  0  0  0  0  0  0  0  0  0  0  0
   10.5778   20.5134  -21.7567 C   0  0  0  0  0  0  0  0  0  0  0  0
   11.8293   20.7291  -21.1710 C   0  0  0  0  0  0  0  0  0  0  0  0
   12.8758   19.8135  -21.4055 C   0  0  0  0  0  0  0  0  0  0  0  0
   13.7790   17.9741  -22.2777 N   0  0  0  0  0  0  0  0  0  0  0  0
   13.8750   17.1043  -22.7820 H   0  0  0  0  0  0  0  0  0  0  0  0
  2 11  1  0  0  0
 23 11  1  0  0  0
 23 24  1  0  0  0
 25 32  1  0  0  0
 27 28  2  0  0  0
 29 30  2  0  0  0
 31 24  1  0  0  0
 31 26  2  0  0  0
  3 11  1  0  0  0
  3  4  1  0  0  0
  4  5  1  0  0  0
  5  6  1  0  0  0
  6  7  1  0  0  0
  6  2  1  0  0  0
  7  8  1  0  0  0
  8 12  1  0  0  0
  9 12  1  0  0  0
  9 10  1  0  0  0
 10  6  1  0  0  0
 14 19  2  0  0  0
 15 20  2  0  0  0
 15 21  1  0  0  0
 17 18  1  0  0  0
 18 13  2  0  0  0
 32 26  1  0  0  0
 12 13  1  0  0  0
 21 16  1  0  0  0
  2  1  2  0  0  0
 24 25  2  0  0  0
 26 27  1  0  0  0
 28 29  1  0  0  0
 30 31  1  0  0  0
 13 19  1  0  0  0
 14 20  1  0  0  0
 16 17  2  0  0  0
 18 15  1  0  0  0
 32 33  1  0  0  0
 21 22  1  0  0  0
M  END
> <minimizedAffinity>
-8.05308

$$$$
CHEMBL3669559


 33 38  0  0  0  0  0  0  0  0999 V2000
   10.8170   15.2771  -21.8978 O   0  0  0  0  0  0  0  0  0  0  0  0
   11.7266   14.5369  -21.5280 C   0  0  0  0  0  0  0  0  0  0  0  0
   12.1292   12.3237  -20.5119 C   0  0  0  0  0  0  0  0  0  0  0  0
   13.5464   12.3022  -21.0534 C   0  0  0  0  0  0  0  0  0  0  0  0
   13.6418   13.1315  -22.3313 C   0  0  0  0  0  0  0  0  0  0  0  0
   13.1560   14.5838  -22.1213 C   0  0  0  0  0  0  0  0  0  0  0  0
   14.0864   15.3309  -21.1183 C   0  0  0  0  0  0  0  0  0  0  0  0
   14.6068   16.6784  -21.6240 C   0  0  0  0  0  0  0  0  0  0  0  0
   12.8276   16.8127  -23.3563 C   0  0  0  0  0  0  0  0  0  0  0  0
   13.1554   15.3172  -23.4824 C   0  0  0  0  0  0  0  0  0  0  0  0
   11.5639   13.6579  -20.4656 N   0  0  0  0  0  0  0  0  0  0  0  0
   13.5231   17.4269  -22.2383 N   0  0  0  0  0  0  0  0  0  0  0  0
   13.2472   18.7121  -21.7920 C   0  0  0  0  0  0  0  0  0  0  0  0
   14.0232   20.6033  -20.6212 C   0  0  0  0  0  0  0  0  0  0  0  0
   11.9623   20.7009  -21.3931 C   0  0  0  0  0  0  0  0  0  0  0  0
    9.9596   20.3354  -22.3200 C   0  0  0  0  0  0  0  0  0  0  0  0
   10.7396   19.2209  -22.5471 C   0  0  0  0  0  0  0  0  0  0  0  0
   12.0281   19.4296  -21.9574 C   0  0  0  0  0  0  0  0  0  0  0  0
   14.2358   19.3704  -21.1118 N   0  0  0  0  0  0  0  0  0  0  0  0
   12.9171   21.3493  -20.7142 N   0  0  0  0  0  0  0  0  0  0  0  0
   10.7206   21.2267  -21.6192 N   0  0  0  0  0  0  0  0  0  0  0  0
   10.4324   22.1365  -21.2918 H   0  0  0  0  0  0  0  0  0  0  0  0
   10.5733   13.9689  -19.4417 C   0  0  0  0  0  0  0  0  0  0  0  0
   11.3227   14.1068  -18.1500 C   0  0  0  0  0  0  0  0  0  0  0  0
   12.5822   14.6541  -17.9756 C   0  0  0  0  0  0  0  0  0  0  0  0
   11.7887   14.2001  -15.9170 C   0  0  0  0  0  0  0  0  0  0  0  0
   11.6038   14.0947  -14.5328 C   0  0  0  0  0  0  0  0  0  0  0  0
   10.4066   13.5340  -14.0793 C   0  0  0  0  0  0  0  0  0  0  0  0
    9.4354   13.0987  -14.9760 C   0  0  0  0  0  0  0  0  0  0  0  0
    9.6288   13.2284  -16.3550 C   0  0  0  0  0  0  0  0  0  0  0  0
   10.8288   13.7871  -16.8411 C   0  0  0  0  0  0  0  0  0  0  0  0
   12.8430   14.7143  -16.6330 N   0  0  0  0  0  0  0  0  0  0  0  0
   13.6735   15.1100  -16.2162 H   0  0  0  0  0  0  0  0  0  0  0  0
  2 11  1  0  0  0
 23 11  1  0  0  0
 23 24  1  0  0  0
 25 32  1  0  0  0
 27 28  2  0  0  0
 29 30  2  0  0  0
 31 24  1  0  0  0
 31 26  2  0  0  0
  3 11  1  0  0  0
  3  4  1  0  0  0
  4  5  1  0  0  0
  5  6  1  0  0  0
  6  7  1  0  0  0
  6  2  1  0  0  0
  7  8  1  0  0  0
  8 12  1  0  0  0
  9 12  1  0  0  0
  9 10  1  0  0  0
 10  6  1  0  0  0
 14 19  2  0  0  0
 15 20  2  0  0  0
 15 21  1  0  0  0
 17 18  1  0  0  0
 18 13  2  0  0  0
 32 26  1  0  0  0
 12 13  1  0  0  0
 21 16  1  0  0  0
  2  1  2  0  0  0
 24 25  2  0  0  0
 26 27  1  0  0  0
 28 29  1  0  0  0
 30 31  1  0  0  0
 13 19  1  0  0  0
 14 20  1  0  0  0
 16 17  2  0  0  0
 18 15  1  0  0  0
 32 33  1  0  0  0
 21 22  1  0  0  0
M  END
> <minimizedAffinity>
-7.79377

$$$$
CHEMBL3669559


 33 38  0  0  0  0  0  0  0  0999 V2000
   12.5860   12.3721  -16.3550 O   0  0  0  0  0  0  0  0  0  0  0  0
   11.5200   12.8481  -16.7415 C   0  0  0  0  0  0  0  0  0  0  0  0
    9.6438   12.3973  -18.2808 C   0  0  0  0  0  0  0  0  0  0  0  0
    8.7406   13.3317  -17.4975 C   0  0  0  0  0  0  0  0  0  0  0  0
    9.1764   13.3942  -16.0360 C   0  0  0  0  0  0  0  0  0  0  0  0
   10.6579   13.8092  -15.8869 C   0  0  0  0  0  0  0  0  0  0  0  0
   10.8722   15.2636  -16.4053 C   0  0  0  0  0  0  0  0  0  0  0  0
   11.5934   16.1853  -15.4191 C   0  0  0  0  0  0  0  0  0  0  0  0
   12.4737   14.2532  -14.1242 C   0  0  0  0  0  0  0  0  0  0  0  0
   11.0594   13.7190  -14.3965 C   0  0  0  0  0  0  0  0  0  0  0  0
   11.0521   12.6343  -18.0312 N   0  0  0  0  0  0  0  0  0  0  0  0
   12.7309   15.4925  -14.8375 N   0  0  0  0  0  0  0  0  0  0  0  0
   13.9906   16.0701  -14.9169 C   0  0  0  0  0  0  0  0  0  0  0  0
   15.6524   17.3373  -13.8295 C   0  0  0  0  0  0  0  0  0  0  0  0
   16.0718   16.7419  -15.9085 C   0  0  0  0  0  0  0  0  0  0  0  0
   16.0417   15.9473  -17.9993 C   0  0  0  0  0  0  0  0  0  0  0  0
   14.8685   15.5626  -17.3845 C   0  0  0  0  0  0  0  0  0  0  0  0
   14.8624   16.0649  -16.0431 C   0  0  0  0  0  0  0  0  0  0  0  0
   14.4562   16.7253  -13.8090 N   0  0  0  0  0  0  0  0  0  0  0  0
   16.5316   17.3975  -14.8354 N   0  0  0  0  0  0  0  0  0  0  0  0
   16.7627   16.6613  -17.0856 N   0  0  0  0  0  0  0  0  0  0  0  0
   17.6647   17.0889  -17.2330 H   0  0  0  0  0  0  0  0  0  0  0  0
   12.0138   12.3477  -19.0891 C   0  0  0  0  0  0  0  0  0  0  0  0
   11.8963   13.4613  -20.0867 C   0  0  0  0  0  0  0  0  0  0  0  0
   12.2391   14.7885  -19.8931 C   0  0  0  0  0  0  0  0  0  0  0  0
   11.6660   14.5831  -22.0617 C   0  0  0  0  0  0  0  0  0  0  0  0
   11.4286   14.8060  -23.4238 C   0  0  0  0  0  0  0  0  0  0  0  0
   10.9917   13.7232  -24.1916 C   0  0  0  0  0  0  0  0  0  0  0  0
   10.8020   12.4694  -23.6181 C   0  0  0  0  0  0  0  0  0  0  0  0
   11.0615   12.2601  -22.2599 C   0  0  0  0  0  0  0  0  0  0  0  0
   11.4999   13.3355  -21.4602 C   0  0  0  0  0  0  0  0  0  0  0  0
   12.1074   15.4454  -21.0870 N   0  0  0  0  0  0  0  0  0  0  0  0
   12.3329   16.4167  -21.2475 H   0  0  0  0  0  0  0  0  0  0  0  0
  2 11  1  0  0  0
 23 11  1  0  0  0
 23 24  1  0  0  0
 25 32  1  0  0  0
 27 28  2  0  0  0
 29 30  2  0  0  0
 31 24  1  0  0  0
 31 26  2  0  0  0
  3 11  1  0  0  0
  3  4  1  0  0  0
  4  5  1  0  0  0
  5  6  1  0  0  0
  6  7  1  0  0  0
  6  2  1  0  0  0
  7  8  1  0  0  0
  8 12  1  0  0  0
  9 12  1  0  0  0
  9 10  1  0  0  0
 10  6  1  0  0  0
 14 19  2  0  0  0
 15 20  2  0  0  0
 15 21  1  0  0  0
 17 18  1  0  0  0
 18 13  2  0  0  0
 32 26  1  0  0  0
 12 13  1  0  0  0
 21 16  1  0  0  0
  2  1  2  0  0  0
 24 25  2  0  0  0
 26 27  1  0  0  0
 28 29  1  0  0  0
 30 31  1  0  0  0
 13 19  1  0  0  0
 14 20  1  0  0  0
 16 17  2  0  0  0
 18 15  1  0  0  0
 32 33  1  0  0  0
 21 22  1  0  0  0
M  END
> <minimizedAffinity>
-7.77662

$$$$
CHEMBL3669559


 33 38  0  0  0  0  0  0  0  0999 V2000
   15.8004   15.7027  -17.3420 O   0  0  0  0  0  0  0  0  0  0  0  0
   15.9940   16.5940  -16.5173 C   0  0  0  0  0  0  0  0  0  0  0  0
   15.8026   17.0724  -14.1033 C   0  0  0  0  0  0  0  0  0  0  0  0
   16.8123   18.1991  -14.2184 C   0  0  0  0  0  0  0  0  0  0  0  0
   17.7764   17.9357  -15.3721 C   0  0  0  0  0  0  0  0  0  0  0  0
   17.0368   17.7218  -16.7124 C   0  0  0  0  0  0  0  0  0  0  0  0
   16.2894   19.0222  -17.1369 C   0  0  0  0  0  0  0  0  0  0  0  0
   16.5857   19.4825  -18.5661 C   0  0  0  0  0  0  0  0  0  0  0  0
   17.4470   17.2378  -19.2021 C   0  0  0  0  0  0  0  0  0  0  0  0
   18.0647   17.3291  -17.7986 C   0  0  0  0  0  0  0  0  0  0  0  0
   15.2106   16.7139  -15.3772 N   0  0  0  0  0  0  0  0  0  0  0  0
   16.5448   18.3448  -19.4695 N   0  0  0  0  0  0  0  0  0  0  0  0
   15.7140   18.3897  -20.5807 C   0  0  0  0  0  0  0  0  0  0  0  0
   14.9434   19.6457  -22.4187 C   0  0  0  0  0  0  0  0  0  0  0  0
   14.0444   17.6538  -22.1416 C   0  0  0  0  0  0  0  0  0  0  0  0
   13.4127   15.6212  -21.4538 C   0  0  0  0  0  0  0  0  0  0  0  0
   14.3915   16.0728  -20.5935 C   0  0  0  0  0  0  0  0  0  0  0  0
   14.8095   17.3775  -21.0115 C   0  0  0  0  0  0  0  0  0  0  0  0
   15.7478   19.5217  -21.3494 N   0  0  0  0  0  0  0  0  0  0  0  0
   14.0588   18.7620  -22.8931 N   0  0  0  0  0  0  0  0  0  0  0  0
   13.2165   16.5947  -22.3911 N   0  0  0  0  0  0  0  0  0  0  0  0
   12.5573   16.5701  -23.1546 H   0  0  0  0  0  0  0  0  0  0  0  0
   13.8518   16.1852  -15.3995 C   0  0  0  0  0  0  0  0  0  0  0  0
   13.4915   15.8725  -13.9776 C   0  0  0  0  0  0  0  0  0  0  0  0
   14.1552   16.2993  -12.8402 C   0  0  0  0  0  0  0  0  0  0  0  0
   12.3091   15.2165  -12.1382 C   0  0  0  0  0  0  0  0  0  0  0  0
   11.2735   14.6679  -11.3714 C   0  0  0  0  0  0  0  0  0  0  0  0
   10.2369   14.0210  -12.0497 C   0  0  0  0  0  0  0  0  0  0  0  0
   10.2381   13.9292  -13.4384 C   0  0  0  0  0  0  0  0  0  0  0  0
   11.2710   14.4987  -14.1897 C   0  0  0  0  0  0  0  0  0  0  0  0
   12.3319   15.1544  -13.5316 C   0  0  0  0  0  0  0  0  0  0  0  0
   13.4295   15.9093  -11.7468 N   0  0  0  0  0  0  0  0  0  0  0  0
   13.6577   16.1247  -10.7869 H   0  0  0  0  0  0  0  0  0  0  0  0
  2 11  1  0  0  0
 23 11  1  0  0  0
 23 24  1  0  0  0
 25 32  1  0  0  0
 27 28  2  0  0  0
 29 30  2  0  0  0
 31 24  1  0  0  0
 31 26  2  0  0  0
  3 11  1  0  0  0
  3  4  1  0  0  0
  4  5  1  0  0  0
  5  6  1  0  0  0
  6  7  1  0  0  0
  6  2  1  0  0  0
  7  8  1  0  0  0
  8 12  1  0  0  0
  9 12  1  0  0  0
  9 10  1  0  0  0
 10  6  1  0  0  0
 14 19  2  0  0  0
 15 20  2  0  0  0
 15 21  1  0  0  0
 17 18  1  0  0  0
 18 13  2  0  0  0
 32 26  1  0  0  0
 12 13  1  0  0  0
 21 16  1  0  0  0
  2  1  2  0  0  0
 24 25  2  0  0  0
 26 27  1  0  0  0
 28 29  1  0  0  0
 30 31  1  0  0  0
 13 19  1  0  0  0
 14 20  1  0  0  0
 16 17  2  0  0  0
 18 15  1  0  0  0
 32 33  1  0  0  0
 21 22  1  0  0  0
M  END
> <minimizedAffinity>
-7.77214

$$$$
CHEMBL3669559


 33 38  0  0  0  0  0  0  0  0999 V2000
   13.5447   12.7880  -17.1782 O   0  0  0  0  0  0  0  0  0  0  0  0
   12.6256   13.2395  -17.8590 C   0  0  0  0  0  0  0  0  0  0  0  0
   11.9825   13.6670  -20.2035 C   0  0  0  0  0  0  0  0  0  0  0  0
   10.5136   13.6957  -19.8242 C   0  0  0  0  0  0  0  0  0  0  0  0
   10.2634   12.8284  -18.5933 C   0  0  0  0  0  0  0  0  0  0  0  0
   11.1480   13.2460  -17.3965 C   0  0  0  0  0  0  0  0  0  0  0  0
   10.7814   14.6852  -16.9228 C   0  0  0  0  0  0  0  0  0  0  0  0
   10.5023   14.8039  -15.4227 C   0  0  0  0  0  0  0  0  0  0  0  0
   11.6624   12.6557  -14.9494 C   0  0  0  0  0  0  0  0  0  0  0  0
   10.9367   12.2430  -16.2390 C   0  0  0  0  0  0  0  0  0  0  0  0
   12.8613   13.8770  -19.0698 N   0  0  0  0  0  0  0  0  0  0  0  0
   11.5114   14.0741  -14.6737 N   0  0  0  0  0  0  0  0  0  0  0  0
   12.2294   14.7310  -13.6837 C   0  0  0  0  0  0  0  0  0  0  0  0
   12.4131   15.2471  -11.3925 C   0  0  0  0  0  0  0  0  0  0  0  0
   13.9271   16.1327  -12.7252 C   0  0  0  0  0  0  0  0  0  0  0  0
   15.1991   16.8143  -14.4343 C   0  0  0  0  0  0  0  0  0  0  0  0
   14.2206   15.9848  -14.9408 C   0  0  0  0  0  0  0  0  0  0  0  0
   13.3887   15.5385  -13.8637 C   0  0  0  0  0  0  0  0  0  0  0  0
   11.7858   14.6083  -12.3947 N   0  0  0  0  0  0  0  0  0  0  0  0
   13.4941   16.0313  -11.4622 N   0  0  0  0  0  0  0  0  0  0  0  0
   15.0069   16.8904  -13.0845 N   0  0  0  0  0  0  0  0  0  0  0  0
   15.5539   17.4279  -12.4287 H   0  0  0  0  0  0  0  0  0  0  0  0
   14.1550   14.5132  -19.2887 C   0  0  0  0  0  0  0  0  0  0  0  0
   13.9557   15.5226  -20.3799 C   0  0  0  0  0  0  0  0  0  0  0  0
   12.8706   15.6177  -21.2343 C   0  0  0  0  0  0  0  0  0  0  0  0
   14.1825   17.3982  -21.6616 C   0  0  0  0  0  0  0  0  0  0  0  0
   14.7137   18.6006  -22.1447 C   0  0  0  0  0  0  0  0  0  0  0  0
   15.9318   19.0317  -21.6122 C   0  0  0  0  0  0  0  0  0  0  0  0
   16.5888   18.2890  -20.6357 C   0  0  0  0  0  0  0  0  0  0  0  0
   16.0350   17.0997  -20.1514 C   0  0  0  0  0  0  0  0  0  0  0  0
   14.8087   16.6387  -20.6731 C   0  0  0  0  0  0  0  0  0  0  0  0
   13.0144   16.7518  -21.9876 N   0  0  0  0  0  0  0  0  0  0  0  0
   12.3465   17.0923  -22.6644 H   0  0  0  0  0  0  0  0  0  0  0  0
  2 11  1  0  0  0
 23 11  1  0  0  0
 23 24  1  0  0  0
 25 32  1  0  0  0
 27 28  2  0  0  0
 29 30  2  0  0  0
 31 24  1  0  0  0
 31 26  2  0  0  0
  3 11  1  0  0  0
  3  4  1  0  0  0
  4  5  1  0  0  0
  5  6  1  0  0  0
  6  7  1  0  0  0
  6  2  1  0  0  0
  7  8  1  0  0  0
  8 12  1  0  0  0
  9 12  1  0  0  0
  9 10  1  0  0  0
 10  6  1  0  0  0
 14 19  2  0  0  0
 15 20  2  0  0  0
 15 21  1  0  0  0
 17 18  1  0  0  0
 18 13  2  0  0  0
 32 26  1  0  0  0
 12 13  1  0  0  0
 21 16  1  0  0  0
  2  1  2  0  0  0
 24 25  2  0  0  0
 26 27  1  0  0  0
 28 29  1  0  0  0
 30 31  1  0  0  0
 13 19  1  0  0  0
 14 20  1  0  0  0
 16 17  2  0  0  0
 18 15  1  0  0  0
 32 33  1  0  0  0
 21 22  1  0  0  0
M  END
> <minimizedAffinity>
-7.65131

$$$$
CHEMBL3393341


 25 28  0  0  0  0  0  0  0  0999 V2000
   13.9933   15.7183  -15.2058 C   0  0  0  0  0  0  0  0  0  0  0  0
   15.7906   17.0913  -15.7638 C   0  0  0  0  0  0  0  0  0  0  0  0
   15.0632   15.7131  -17.3345 C   0  0  0  0  0  0  0  0  0  0  0  0
   14.0466   14.0954  -18.5065 C   0  0  0  0  0  0  0  0  0  0  0  0
   13.5002   14.0806  -17.2346 C   0  0  0  0  0  0  0  0  0  0  0  0
   14.1079   15.1557  -16.4982 C   0  0  0  0  0  0  0  0  0  0  0  0
   14.8915   16.6730  -14.8517 N   0  0  0  0  0  0  0  0  0  0  0  0
   15.9321   16.6889  -17.0373 N   0  0  0  0  0  0  0  0  0  0  0  0
   14.9851   15.0945  -18.5510 N   0  0  0  0  0  0  0  0  0  0  0  0
   15.5714   15.3316  -19.3380 H   0  0  0  0  0  0  0  0  0  0  0  0
   12.5115   14.9654  -10.5636 C   0  0  0  0  0  0  0  0  0  0  0  0
   12.3351   14.7169  -12.0578 C   0  0  0  0  0  0  0  0  0  0  0  0
   10.8617   14.8700  -12.4674 C   0  0  0  0  0  0  0  0  0  0  0  0
   10.6724   14.6746  -13.9708 C   0  0  0  0  0  0  0  0  0  0  0  0
   11.6388   15.5279  -14.7900 C   0  0  0  0  0  0  0  0  0  0  0  0
   13.2308   15.6422  -12.8981 C   0  0  0  0  0  0  0  0  0  0  0  0
   13.0057   15.3301  -14.3065 N   0  0  0  0  0  0  0  0  0  0  0  0
   12.5552   13.0637  -16.7954 C   0  0  0  0  0  0  0  0  0  0  0  0
   12.9272   12.0790  -15.8724 C   0  0  0  0  0  0  0  0  0  0  0  0
   12.0181   11.0886  -15.4897 C   0  0  0  0  0  0  0  0  0  0  0  0
   10.7311   11.0723  -16.0293 C   0  0  0  0  0  0  0  0  0  0  0  0
   10.3446   12.0563  -16.9431 C   0  0  0  0  0  0  0  0  0  0  0  0
   11.2513   13.0560  -17.3114 C   0  0  0  0  0  0  0  0  0  0  0  0
    9.0399   12.0149  -17.5372 C   0  0  0  0  0  0  0  0  0  0  0  0
    7.9848   12.0032  -18.0189 N   0  0  0  0  0  0  0  0  0  0  0  0
 12 11  1  0  0  0
 12 13  1  0  0  0
 13 14  1  0  0  0
 14 15  1  0  0  0
 15 17  1  0  0  0
 16 17  1  0  0  0
 16 12  1  0  0  0
  2  7  2  0  0  0
  3  8  2  0  0  0
  3  9  1  0  0  0
  5 18  1  0  0  0
  5  6  1  0  0  0
 19 20  2  0  0  0
 21 22  2  0  0  0
 22 24  1  0  0  0
 23 18  2  0  0  0
  6  1  2  0  0  0
 17  1  1  0  0  0
  9  4  1  0  0  0
  1  7  1  0  0  0
  2  8  1  0  0  0
  4  5  2  0  0  0
 18 19  1  0  0  0
 20 21  1  0  0  0
 22 23  1  0  0  0
  6  3  1  0  0  0
 24 25  3  0  0  0
  9 10  1  0  0  0
M  END
> <minimizedAffinity>
-8.93047

$$$$
CHEMBL3393341


 25 28  0  0  0  0  0  0  0  0999 V2000
   13.4176   14.1847  -16.6233 C   0  0  0  0  0  0  0  0  0  0  0  0
   14.9720   15.2140  -18.0202 C   0  0  0  0  0  0  0  0  0  0  0  0
   14.8424   15.9695  -15.9446 C   0  0  0  0  0  0  0  0  0  0  0  0
   14.2532   16.4293  -13.8315 C   0  0  0  0  0  0  0  0  0  0  0  0
   13.3955   15.4428  -14.2872 C   0  0  0  0  0  0  0  0  0  0  0  0
   13.8085   15.1037  -15.6221 C   0  0  0  0  0  0  0  0  0  0  0  0
   14.0021   14.2956  -17.8439 N   0  0  0  0  0  0  0  0  0  0  0  0
   15.4767   16.0738  -17.1202 N   0  0  0  0  0  0  0  0  0  0  0  0
   15.1267   16.7302  -14.8450 N   0  0  0  0  0  0  0  0  0  0  0  0
   15.8531   17.4311  -14.8221 H   0  0  0  0  0  0  0  0  0  0  0  0
    9.1796   11.9757  -17.8368 C   0  0  0  0  0  0  0  0  0  0  0  0
   10.2786   12.2423  -16.8136 C   0  0  0  0  0  0  0  0  0  0  0  0
   10.7276   10.9358  -16.1402 C   0  0  0  0  0  0  0  0  0  0  0  0
   11.8642   11.1759  -15.1479 C   0  0  0  0  0  0  0  0  0  0  0  0
   13.0054   11.9845  -15.7620 C   0  0  0  0  0  0  0  0  0  0  0  0
   11.4788   12.9681  -17.4441 C   0  0  0  0  0  0  0  0  0  0  0  0
   12.4720   13.1901  -16.3971 N   0  0  0  0  0  0  0  0  0  0  0  0
   12.2585   14.9680  -13.5113 C   0  0  0  0  0  0  0  0  0  0  0  0
   12.2976   14.9385  -12.1122 C   0  0  0  0  0  0  0  0  0  0  0  0
   11.2108   14.4454  -11.3845 C   0  0  0  0  0  0  0  0  0  0  0  0
   10.0779   13.9741  -12.0496 C   0  0  0  0  0  0  0  0  0  0  0  0
   10.0227   14.0087  -13.4454 C   0  0  0  0  0  0  0  0  0  0  0  0
   11.1052   14.5185  -14.1703 C   0  0  0  0  0  0  0  0  0  0  0  0
    8.8812   13.4804  -14.1343 C   0  0  0  0  0  0  0  0  0  0  0  0
    7.9464   13.0545  -14.6730 N   0  0  0  0  0  0  0  0  0  0  0  0
 12 11  1  0  0  0
 12 13  1  0  0  0
 13 14  1  0  0  0
 14 15  1  0  0  0
 15 17  1  0  0  0
 16 17  1  0  0  0
 16 12  1  0  0  0
  2  7  2  0  0  0
  3  8  2  0  0  0
  3  9  1  0  0  0
  5 18  1  0  0  0
  5  6  1  0  0  0
 19 20  2  0  0  0
 21 22  2  0  0  0
 22 24  1  0  0  0
 23 18  2  0  0  0
  6  1  2  0  0  0
 17  1  1  0  0  0
  9  4  1  0  0  0
  1  7  1  0  0  0
  2  8  1  0  0  0
  4  5  2  0  0  0
 18 19  1  0  0  0
 20 21  1  0  0  0
 22 23  1  0  0  0
  6  3  1  0  0  0
 24 25  3  0  0  0
  9 10  1  0  0  0
M  END
> <minimizedAffinity>
-8.81349

$$$$
CHEMBL3393341


 25 28  0  0  0  0  0  0  0  0999 V2000
   13.5866   14.5147  -17.4130 C   0  0  0  0  0  0  0  0  0  0  0  0
   15.6476   15.5725  -17.6583 C   0  0  0  0  0  0  0  0  0  0  0  0
   14.4216   15.3410  -19.4856 C   0  0  0  0  0  0  0  0  0  0  0  0
   12.8855   14.7706  -21.0148 C   0  0  0  0  0  0  0  0  0  0  0  0
   12.4700   14.2423  -19.8046 C   0  0  0  0  0  0  0  0  0  0  0  0
   13.4225   14.6567  -18.8104 C   0  0  0  0  0  0  0  0  0  0  0  0
   14.7485   14.9562  -16.8664 N   0  0  0  0  0  0  0  0  0  0  0  0
   15.5567   15.8346  -18.9724 N   0  0  0  0  0  0  0  0  0  0  0  0
   14.0641   15.4385  -20.8014 N   0  0  0  0  0  0  0  0  0  0  0  0
   14.6235   15.9056  -21.5001 H   0  0  0  0  0  0  0  0  0  0  0  0
   11.5739   10.5371  -15.3056 C   0  0  0  0  0  0  0  0  0  0  0  0
   11.4566   11.9899  -15.7543 C   0  0  0  0  0  0  0  0  0  0  0  0
   10.8219   12.8531  -14.6525 C   0  0  0  0  0  0  0  0  0  0  0  0
   10.7424   14.3222  -15.0642 C   0  0  0  0  0  0  0  0  0  0  0  0
   12.0807   14.8512  -15.5768 C   0  0  0  0  0  0  0  0  0  0  0  0
   12.8179   12.5660  -16.1782 C   0  0  0  0  0  0  0  0  0  0  0  0
   12.6108   13.9486  -16.5994 N   0  0  0  0  0  0  0  0  0  0  0  0
   11.3141   13.3651  -19.6836 C   0  0  0  0  0  0  0  0  0  0  0  0
   11.2168   12.1871  -20.4337 C   0  0  0  0  0  0  0  0  0  0  0  0
   10.0833   11.3755  -20.3322 C   0  0  0  0  0  0  0  0  0  0  0  0
    9.0363   11.7370  -19.4830 C   0  0  0  0  0  0  0  0  0  0  0  0
    9.1267   12.9048  -18.7210 C   0  0  0  0  0  0  0  0  0  0  0  0
   10.2698   13.7062  -18.8121 C   0  0  0  0  0  0  0  0  0  0  0  0
    8.0327   13.3055  -17.8846 C   0  0  0  0  0  0  0  0  0  0  0  0
    7.1368   13.6118  -17.2146 N   0  0  0  0  0  0  0  0  0  0  0  0
 12 11  1  0  0  0
 12 13  1  0  0  0
 13 14  1  0  0  0
 14 15  1  0  0  0
 15 17  1  0  0  0
 16 17  1  0  0  0
 16 12  1  0  0  0
  2  7  2  0  0  0
  3  8  2  0  0  0
  3  9  1  0  0  0
  5 18  1  0  0  0
  5  6  1  0  0  0
 19 20  2  0  0  0
 21 22  2  0  0  0
 22 24  1  0  0  0
 23 18  2  0  0  0
  6  1  2  0  0  0
 17  1  1  0  0  0
  9  4  1  0  0  0
  1  7  1  0  0  0
  2  8  1  0  0  0
  4  5  2  0  0  0
 18 19  1  0  0  0
 20 21  1  0  0  0
 22 23  1  0  0  0
  6  3  1  0  0  0
 24 25  3  0  0  0
  9 10  1  0  0  0
M  END
> <minimizedAffinity>
-8.60384

$$$$
CHEMBL3393341


 25 28  0  0  0  0  0  0  0  0999 V2000
   12.9474   15.2247  -14.5338 C   0  0  0  0  0  0  0  0  0  0  0  0
   13.6191   16.5899  -12.7697 C   0  0  0  0  0  0  0  0  0  0  0  0
   12.0111   15.1304  -12.3450 C   0  0  0  0  0  0  0  0  0  0  0  0
   10.3779   13.5999  -12.4630 C   0  0  0  0  0  0  0  0  0  0  0  0
   10.8998   13.7366  -13.7379 C   0  0  0  0  0  0  0  0  0  0  0  0
   11.9869   14.6739  -13.6541 C   0  0  0  0  0  0  0  0  0  0  0  0
   13.7343   16.2255  -14.0616 N   0  0  0  0  0  0  0  0  0  0  0  0
   12.8056   16.0790  -11.8309 N   0  0  0  0  0  0  0  0  0  0  0  0
   11.0675   14.4452  -11.6318 N   0  0  0  0  0  0  0  0  0  0  0  0
   10.8975   14.5881  -10.6469 H   0  0  0  0  0  0  0  0  0  0  0  0
   11.0583   14.3762  -19.0086 C   0  0  0  0  0  0  0  0  0  0  0  0
   12.1448   14.1218  -17.9691 C   0  0  0  0  0  0  0  0  0  0  0  0
   13.5406   14.1912  -18.6087 C   0  0  0  0  0  0  0  0  0  0  0  0
   14.6450   13.9891  -17.5726 C   0  0  0  0  0  0  0  0  0  0  0  0
   14.4703   14.8986  -16.3578 C   0  0  0  0  0  0  0  0  0  0  0  0
   12.0407   15.0991  -16.7865 C   0  0  0  0  0  0  0  0  0  0  0  0
   13.1064   14.7783  -15.8415 N   0  0  0  0  0  0  0  0  0  0  0  0
   10.3228   13.0756  -14.8999 C   0  0  0  0  0  0  0  0  0  0  0  0
   10.8969   11.9153  -15.4330 C   0  0  0  0  0  0  0  0  0  0  0  0
   10.3510   11.3146  -16.5709 C   0  0  0  0  0  0  0  0  0  0  0  0
    9.2292   11.8709  -17.1874 C   0  0  0  0  0  0  0  0  0  0  0  0
    8.6408   13.0226  -16.6582 C   0  0  0  0  0  0  0  0  0  0  0  0
    9.1793   13.6118  -15.5093 C   0  0  0  0  0  0  0  0  0  0  0  0
    7.5183   13.6254  -17.3164 C   0  0  0  0  0  0  0  0  0  0  0  0
    6.5997   14.1136  -17.8297 N   0  0  0  0  0  0  0  0  0  0  0  0
 12 11  1  0  0  0
 12 13  1  0  0  0
 13 14  1  0  0  0
 14 15  1  0  0  0
 15 17  1  0  0  0
 16 17  1  0  0  0
 16 12  1  0  0  0
  2  7  2  0  0  0
  3  8  2  0  0  0
  3  9  1  0  0  0
  5 18  1  0  0  0
  5  6  1  0  0  0
 19 20  2  0  0  0
 21 22  2  0  0  0
 22 24  1  0  0  0
 23 18  2  0  0  0
  6  1  2  0  0  0
 17  1  1  0  0  0
  9  4  1  0  0  0
  1  7  1  0  0  0
  2  8  1  0  0  0
  4  5  2  0  0  0
 18 19  1  0  0  0
 20 21  1  0  0  0
 22 23  1  0  0  0
  6  3  1  0  0  0
 24 25  3  0  0  0
  9 10  1  0  0  0
M  END
> <minimizedAffinity>
-8.53224

$$$$
CHEMBL3393341


 25 28  0  0  0  0  0  0  0  0999 V2000
   12.3177   14.3291  -19.8039 C   0  0  0  0  0  0  0  0  0  0  0  0
   13.4440   15.7864  -21.2303 C   0  0  0  0  0  0  0  0  0  0  0  0
   14.3983   15.3644  -19.2791 C   0  0  0  0  0  0  0  0  0  0  0  0
   14.8749   14.7136  -17.1880 C   0  0  0  0  0  0  0  0  0  0  0  0
   13.6331   14.1895  -17.5037 C   0  0  0  0  0  0  0  0  0  0  0  0
   13.3509   14.5556  -18.8652 C   0  0  0  0  0  0  0  0  0  0  0  0
   12.3767   15.0028  -20.9813 N   0  0  0  0  0  0  0  0  0  0  0  0
   14.5154   16.0047  -20.4503 N   0  0  0  0  0  0  0  0  0  0  0  0
   15.3261   15.4151  -18.2766 N   0  0  0  0  0  0  0  0  0  0  0  0
   16.1907   15.9327  -18.3399 H   0  0  0  0  0  0  0  0  0  0  0  0
    8.1047   13.2684  -17.4719 C   0  0  0  0  0  0  0  0  0  0  0  0
    9.3330   12.8030  -18.2469 C   0  0  0  0  0  0  0  0  0  0  0  0
    8.9405   11.7982  -19.3416 C   0  0  0  0  0  0  0  0  0  0  0  0
   10.1518   11.3588  -20.1625 C   0  0  0  0  0  0  0  0  0  0  0  0
   10.9667   12.5468  -20.6703 C   0  0  0  0  0  0  0  0  0  0  0  0
   10.1076   13.9868  -18.8495 C   0  0  0  0  0  0  0  0  0  0  0  0
   11.2655   13.4526  -19.5606 N   0  0  0  0  0  0  0  0  0  0  0  0
   12.8050   13.4874  -16.5335 C   0  0  0  0  0  0  0  0  0  0  0  0
   12.5075   12.1277  -16.6839 C   0  0  0  0  0  0  0  0  0  0  0  0
   11.6808   11.4784  -15.7625 C   0  0  0  0  0  0  0  0  0  0  0  0
   11.1418   12.1839  -14.6857 C   0  0  0  0  0  0  0  0  0  0  0  0
   11.4405   13.5388  -14.5188 C   0  0  0  0  0  0  0  0  0  0  0  0
   12.2818   14.1817  -15.4332 C   0  0  0  0  0  0  0  0  0  0  0  0
   10.8496   14.2792  -13.4421 C   0  0  0  0  0  0  0  0  0  0  0  0
   10.3585   14.8611  -12.5670 N   0  0  0  0  0  0  0  0  0  0  0  0
 12 11  1  0  0  0
 12 13  1  0  0  0
 13 14  1  0  0  0
 14 15  1  0  0  0
 15 17  1  0  0  0
 16 17  1  0  0  0
 16 12  1  0  0  0
  2  7  2  0  0  0
  3  8  2  0  0  0
  3  9  1  0  0  0
  5 18  1  0  0  0
  5  6  1  0  0  0
 19 20  2  0  0  0
 21 22  2  0  0  0
 22 24  1  0  0  0
 23 18  2  0  0  0
  6  1  2  0  0  0
 17  1  1  0  0  0
  9  4  1  0  0  0
  1  7  1  0  0  0
  2  8  1  0  0  0
  4  5  2  0  0  0
 18 19  1  0  0  0
 20 21  1  0  0  0
 22 23  1  0  0  0
  6  3  1  0  0  0
 24 25  3  0  0  0
  9 10  1  0  0  0
M  END
> <minimizedAffinity>
-7.91691

$$$$
CHEMBL3393341


 25 28  0  0  0  0  0  0  0  0999 V2000
   13.4940   14.4548  -17.4503 C   0  0  0  0  0  0  0  0  0  0  0  0
   15.6026   15.2973  -17.9706 C   0  0  0  0  0  0  0  0  0  0  0  0
   14.0933   15.3176  -19.5886 C   0  0  0  0  0  0  0  0  0  0  0  0
   12.2857   15.0159  -20.8789 C   0  0  0  0  0  0  0  0  0  0  0  0
   12.0011   14.4589  -19.6439 C   0  0  0  0  0  0  0  0  0  0  0  0
   13.1361   14.7032  -18.7956 C   0  0  0  0  0  0  0  0  0  0  0  0
   14.7692   14.7321  -17.0755 N   0  0  0  0  0  0  0  0  0  0  0  0
   15.3433   15.6517  -19.2399 N   0  0  0  0  0  0  0  0  0  0  0  0
   13.5530   15.5375  -20.8247 N   0  0  0  0  0  0  0  0  0  0  0  0
   14.0497   15.9854  -21.5810 H   0  0  0  0  0  0  0  0  0  0  0  0
   11.3535   10.5907  -15.2593 C   0  0  0  0  0  0  0  0  0  0  0  0
   11.3505   12.0765  -15.6032 C   0  0  0  0  0  0  0  0  0  0  0  0
   11.0097   12.9233  -14.3667 C   0  0  0  0  0  0  0  0  0  0  0  0
   11.0517   14.4182  -14.6795 C   0  0  0  0  0  0  0  0  0  0  0  0
   12.3488   14.8259  -15.3758 C   0  0  0  0  0  0  0  0  0  0  0  0
   12.6900   12.5218  -16.2134 C   0  0  0  0  0  0  0  0  0  0  0  0
   12.5945   13.9463  -16.5191 N   0  0  0  0  0  0  0  0  0  0  0  0
   10.7829   13.7058  -19.3817 C   0  0  0  0  0  0  0  0  0  0  0  0
    9.9271   14.0552  -18.3303 C   0  0  0  0  0  0  0  0  0  0  0  0
    8.7807   13.2989  -18.0703 C   0  0  0  0  0  0  0  0  0  0  0  0
    8.4825   12.1851  -18.8567 C   0  0  0  0  0  0  0  0  0  0  0  0
    9.3232   11.8329  -19.9158 C   0  0  0  0  0  0  0  0  0  0  0  0
   10.4608   12.6017  -20.1841 C   0  0  0  0  0  0  0  0  0  0  0  0
    9.0474   10.6611  -20.6952 C   0  0  0  0  0  0  0  0  0  0  0  0
    8.8103    9.7249  -21.3378 N   0  0  0  0  0  0  0  0  0  0  0  0
 12 11  1  0  0  0
 12 13  1  0  0  0
 13 14  1  0  0  0
 14 15  1  0  0  0
 15 17  1  0  0  0
 16 17  1  0  0  0
 16 12  1  0  0  0
  2  7  2  0  0  0
  3  8  2  0  0  0
  3  9  1  0  0  0
  5 18  1  0  0  0
  5  6  1  0  0  0
 19 20  2  0  0  0
 21 22  2  0  0  0
 22 24  1  0  0  0
 23 18  2  0  0  0
  6  1  2  0  0  0
 17  1  1  0  0  0
  9  4  1  0  0  0
  1  7  1  0  0  0
  2  8  1  0  0  0
  4  5  2  0  0  0
 18 19  1  0  0  0
 20 21  1  0  0  0
 22 23  1  0  0  0
  6  3  1  0  0  0
 24 25  3  0  0  0
  9 10  1  0  0  0
M  END
> <minimizedAffinity>
-7.82489

$$$$
CHEMBL3393341


 25 28  0  0  0  0  0  0  0  0999 V2000
   11.1448   14.3042  -13.7490 C   0  0  0  0  0  0  0  0  0  0  0  0
   10.2758   13.9435  -11.6179 C   0  0  0  0  0  0  0  0  0  0  0  0
   12.1325   15.1399  -11.7485 C   0  0  0  0  0  0  0  0  0  0  0  0
   14.0146   16.1681  -12.3998 C   0  0  0  0  0  0  0  0  0  0  0  0
   13.4475   15.6043  -13.5298 C   0  0  0  0  0  0  0  0  0  0  0  0
   12.2097   14.9947  -13.1253 C   0  0  0  0  0  0  0  0  0  0  0  0
   10.1994   13.7479  -12.9488 N   0  0  0  0  0  0  0  0  0  0  0  0
   11.1901   14.6489  -10.9322 N   0  0  0  0  0  0  0  0  0  0  0  0
   13.2015   15.8834  -11.3327 N   0  0  0  0  0  0  0  0  0  0  0  0
   13.3651   16.1384  -10.3695 H   0  0  0  0  0  0  0  0  0  0  0  0
   10.0276   11.6016  -17.7190 C   0  0  0  0  0  0  0  0  0  0  0  0
   10.7369   12.8023  -17.1017 C   0  0  0  0  0  0  0  0  0  0  0  0
   10.4966   14.0690  -17.9383 C   0  0  0  0  0  0  0  0  0  0  0  0
   11.1577   15.2935  -17.3077 C   0  0  0  0  0  0  0  0  0  0  0  0
   10.8007   15.4456  -15.8302 C   0  0  0  0  0  0  0  0  0  0  0  0
   10.3089   13.0270  -15.6418 C   0  0  0  0  0  0  0  0  0  0  0  0
   11.0400   14.1828  -15.1306 N   0  0  0  0  0  0  0  0  0  0  0  0
   14.1087   15.6060  -14.8271 C   0  0  0  0  0  0  0  0  0  0  0  0
   14.0494   14.4914  -15.6721 C   0  0  0  0  0  0  0  0  0  0  0  0
   14.7206   14.4969  -16.8982 C   0  0  0  0  0  0  0  0  0  0  0  0
   15.4595   15.6150  -17.2877 C   0  0  0  0  0  0  0  0  0  0  0  0
   15.5171   16.7377  -16.4578 C   0  0  0  0  0  0  0  0  0  0  0  0
   14.8304   16.7356  -15.2389 C   0  0  0  0  0  0  0  0  0  0  0  0
   16.3149   17.8693  -16.8314 C   0  0  0  0  0  0  0  0  0  0  0  0
   16.9564   18.7801  -17.1547 N   0  0  0  0  0  0  0  0  0  0  0  0
 12 11  1  0  0  0
 12 13  1  0  0  0
 13 14  1  0  0  0
 14 15  1  0  0  0
 15 17  1  0  0  0
 16 17  1  0  0  0
 16 12  1  0  0  0
  2  7  2  0  0  0
  3  8  2  0  0  0
  3  9  1  0  0  0
  5 18  1  0  0  0
  5  6  1  0  0  0
 19 20  2  0  0  0
 21 22  2  0  0  0
 22 24  1  0  0  0
 23 18  2  0  0  0
  6  1  2  0  0  0
 17  1  1  0  0  0
  9  4  1  0  0  0
  1  7  1  0  0  0
  2  8  1  0  0  0
  4  5  2  0  0  0
 18 19  1  0  0  0
 20 21  1  0  0  0
 22 23  1  0  0  0
  6  3  1  0  0  0
 24 25  3  0  0  0
  9 10  1  0  0  0
M  END
> <minimizedAffinity>
-7.79833

$$$$
CHEMBL3393341


 25 28  0  0  0  0  0  0  0  0999 V2000
   14.2611   15.6534  -15.6255 C   0  0  0  0  0  0  0  0  0  0  0  0
   15.9436   17.1207  -14.9599 C   0  0  0  0  0  0  0  0  0  0  0  0
   14.4475   16.5586  -13.4296 C   0  0  0  0  0  0  0  0  0  0  0  0
   12.6638   15.7850  -12.3146 C   0  0  0  0  0  0  0  0  0  0  0  0
   12.5521   15.3384  -13.6202 C   0  0  0  0  0  0  0  0  0  0  0  0
   13.7248   15.7832  -14.3234 C   0  0  0  0  0  0  0  0  0  0  0  0
   15.3682   16.3794  -15.9267 N   0  0  0  0  0  0  0  0  0  0  0  0
   15.5697   17.2482  -13.6763 N   0  0  0  0  0  0  0  0  0  0  0  0
   13.8204   16.5152  -12.2158 N   0  0  0  0  0  0  0  0  0  0  0  0
   14.1599   16.9921  -11.3932 H   0  0  0  0  0  0  0  0  0  0  0  0
   12.8787   14.8450  -20.2890 C   0  0  0  0  0  0  0  0  0  0  0  0
   12.7865   14.4896  -18.8088 C   0  0  0  0  0  0  0  0  0  0  0  0
   12.8696   12.9684  -18.6054 C   0  0  0  0  0  0  0  0  0  0  0  0
   12.8301   12.5958  -17.1243 C   0  0  0  0  0  0  0  0  0  0  0  0
   13.8427   13.3907  -16.3019 C   0  0  0  0  0  0  0  0  0  0  0  0
   13.8672   15.2072  -17.9831 C   0  0  0  0  0  0  0  0  0  0  0  0
   13.6988   14.8190  -16.5858 N   0  0  0  0  0  0  0  0  0  0  0  0
   11.3783   14.6319  -14.1130 C   0  0  0  0  0  0  0  0  0  0  0  0
   10.6756   13.7369  -13.2973 C   0  0  0  0  0  0  0  0  0  0  0  0
    9.5726   13.0398  -13.7985 C   0  0  0  0  0  0  0  0  0  0  0  0
    9.1654   13.2286  -15.1200 C   0  0  0  0  0  0  0  0  0  0  0  0
    9.8520   14.1274  -15.9405 C   0  0  0  0  0  0  0  0  0  0  0  0
   10.9452   14.8363  -15.4310 C   0  0  0  0  0  0  0  0  0  0  0  0
    9.4677   14.2879  -17.3128 C   0  0  0  0  0  0  0  0  0  0  0  0
    9.1722   14.4032  -18.4286 N   0  0  0  0  0  0  0  0  0  0  0  0
 12 11  1  0  0  0
 12 13  1  0  0  0
 13 14  1  0  0  0
 14 15  1  0  0  0
 15 17  1  0  0  0
 16 17  1  0  0  0
 16 12  1  0  0  0
  2  7  2  0  0  0
  3  8  2  0  0  0
  3  9  1  0  0  0
  5 18  1  0  0  0
  5  6  1  0  0  0
 19 20  2  0  0  0
 21 22  2  0  0  0
 22 24  1  0  0  0
 23 18  2  0  0  0
  6  1  2  0  0  0
 17  1  1  0  0  0
  9  4  1  0  0  0
  1  7  1  0  0  0
  2  8  1  0  0  0
  4  5  2  0  0  0
 18 19  1  0  0  0
 20 21  1  0  0  0
 22 23  1  0  0  0
  6  3  1  0  0  0
 24 25  3  0  0  0
  9 10  1  0  0  0
M  END
> <minimizedAffinity>
-7.77608

$$$$
CHEMBL3393341


 25 28  0  0  0  0  0  0  0  0999 V2000
   12.0196   14.5602  -13.0678 C   0  0  0  0  0  0  0  0  0  0  0  0
   12.6750   15.2184  -10.9314 C   0  0  0  0  0  0  0  0  0  0  0  0
   13.7719   16.1143  -12.6314 C   0  0  0  0  0  0  0  0  0  0  0  0
   14.6213   16.6314  -14.6401 C   0  0  0  0  0  0  0  0  0  0  0  0
   13.6451   15.6718  -14.8464 C   0  0  0  0  0  0  0  0  0  0  0  0
   13.0574   15.3812  -13.5667 C   0  0  0  0  0  0  0  0  0  0  0  0
   11.8795   14.4700  -11.7203 N   0  0  0  0  0  0  0  0  0  0  0  0
   13.6287   16.0895  -11.2994 N   0  0  0  0  0  0  0  0  0  0  0  0
   14.6790   16.8924  -13.2950 N   0  0  0  0  0  0  0  0  0  0  0  0
   15.3133   17.5287  -12.8344 H   0  0  0  0  0  0  0  0  0  0  0  0
   11.0581   10.6110  -15.8592 C   0  0  0  0  0  0  0  0  0  0  0  0
   10.7543   12.0546  -15.4726 C   0  0  0  0  0  0  0  0  0  0  0  0
    9.2407   12.2728  -15.3195 C   0  0  0  0  0  0  0  0  0  0  0  0
    8.9194   13.7011  -14.8827 C   0  0  0  0  0  0  0  0  0  0  0  0
    9.7371   14.1302  -13.6658 C   0  0  0  0  0  0  0  0  0  0  0  0
   11.4945   12.4677  -14.1896 C   0  0  0  0  0  0  0  0  0  0  0  0
   11.1554   13.8583  -13.9016 N   0  0  0  0  0  0  0  0  0  0  0  0
   13.3982   15.0667  -16.1475 C   0  0  0  0  0  0  0  0  0  0  0  0
   14.4558   14.6740  -16.9765 C   0  0  0  0  0  0  0  0  0  0  0  0
   14.2009   14.1283  -18.2378 C   0  0  0  0  0  0  0  0  0  0  0  0
   12.8868   13.9743  -18.6823 C   0  0  0  0  0  0  0  0  0  0  0  0
   11.8226   14.3523  -17.8594 C   0  0  0  0  0  0  0  0  0  0  0  0
   12.0806   14.8825  -16.5908 C   0  0  0  0  0  0  0  0  0  0  0  0
   10.4728   14.2416  -18.3313 C   0  0  0  0  0  0  0  0  0  0  0  0
    9.3739   14.1562  -18.6927 N   0  0  0  0  0  0  0  0  0  0  0  0
 12 11  1  0  0  0
 12 13  1  0  0  0
 13 14  1  0  0  0
 14 15  1  0  0  0
 15 17  1  0  0  0
 16 17  1  0  0  0
 16 12  1  0  0  0
  2  7  2  0  0  0
  3  8  2  0  0  0
  3  9  1  0  0  0
  5 18  1  0  0  0
  5  6  1  0  0  0
 19 20  2  0  0  0
 21 22  2  0  0  0
 22 24  1  0  0  0
 23 18  2  0  0  0
  6  1  2  0  0  0
 17  1  1  0  0  0
  9  4  1  0  0  0
  1  7  1  0  0  0
  2  8  1  0  0  0
  4  5  2  0  0  0
 18 19  1  0  0  0
 20 21  1  0  0  0
 22 23  1  0  0  0
  6  3  1  0  0  0
 24 25  3  0  0  0
  9 10  1  0  0  0
M  END
> <minimizedAffinity>
-7.64213

$$$$
CHEMBL2152300


 24 27  0  0  0  0  0  0  0  0999 V2000
   10.9800   14.4609  -14.2606 N   0  0  0  0  0  0  0  0  0  0  0  0
   10.1646   13.9163  -12.2433 N   0  0  0  0  0  0  0  0  0  0  0  0
   13.2920   15.6005  -11.0219 N   0  0  0  0  0  0  0  0  0  0  0  0
   14.8497   16.5435  -12.6320 N   0  0  0  0  0  0  0  0  0  0  0  0
    9.9701   13.8535  -13.5444 C   0  0  0  0  0  0  0  0  0  0  0  0
   11.3490   14.5889  -12.0917 C   0  0  0  0  0  0  0  0  0  0  0  0
   12.0903   14.9457  -10.9500 C   0  0  0  0  0  0  0  0  0  0  0  0
   13.6989   15.9034  -12.2664 C   0  0  0  0  0  0  0  0  0  0  0  0
   14.8866   16.6740  -14.0068 C   0  0  0  0  0  0  0  0  0  0  0  0
   13.7332   16.1191  -14.5369 C   0  0  0  0  0  0  0  0  0  0  0  0
   13.0202   15.6124  -13.4270 C   0  0  0  0  0  0  0  0  0  0  0  0
   11.8417   14.9365  -13.3370 C   0  0  0  0  0  0  0  0  0  0  0  0
   15.5478   16.8668  -11.9776 H   0  0  0  0  0  0  0  0  0  0  0  0
   12.4155   13.7781  -17.6852 N   0  0  0  0  0  0  0  0  0  0  0  0
   13.5872   14.0788  -18.3859 C   0  0  0  0  0  0  0  0  0  0  0  0
   11.2206   13.4042  -18.4456 C   0  0  0  0  0  0  0  0  0  0  0  0
    9.9980   14.1886  -17.9757 C   0  0  0  0  0  0  0  0  0  0  0  0
    9.8046   14.0633  -16.4644 C   0  0  0  0  0  0  0  0  0  0  0  0
   11.0787   14.5068  -15.7138 C   0  0  0  0  0  0  0  0  0  0  0  0
   12.2820   13.6853  -16.2230 C   0  0  0  0  0  0  0  0  0  0  0  0
   13.6098   14.0761  -19.6169 O   0  0  0  0  0  0  0  0  0  0  0  0
   14.8192   14.4194  -17.5711 C   0  0  0  0  0  0  0  0  0  0  0  0
   16.3191   16.2280  -18.7419 N   0  0  0  0  0  0  0  0  0  0  0  0
   15.6415   15.4589  -18.1974 C   0  0  0  0  0  0  0  0  0  0  0  0
  1  5  1  0  0  0
  4  9  1  0  0  0
 22 24  1  0  0  0
 22 15  1  0  0  0
 15 14  1  0  0  0
 16 14  1  0  0  0
 16 17  1  0  0  0
 17 18  1  0  0  0
 18 19  1  0  0  0
 19  1  1  0  0  0
 19 20  1  0  0  0
  6  2  1  0  0  0
  7  3  2  0  0  0
  8  4  1  0  0  0
 10 11  1  0  0  0
 11  8  2  0  0  0
 12  1  1  0  0  0
 12  6  2  0  0  0
 20 14  1  0  0  0
 15 21  2  0  0  0
  5  2  2  0  0  0
  6  7  1  0  0  0
  8  3  1  0  0  0
  9 10  2  0  0  0
 11 12  1  0  0  0
 24 23  3  0  0  0
  4 13  1  0  0  0
M  END
> <minimizedAffinity>
-9.11373

$$$$
CHEMBL2152300


 24 27  0  0  0  0  0  0  0  0999 V2000
   13.5111   14.9925  -15.8494 N   0  0  0  0  0  0  0  0  0  0  0  0
   14.8771   16.4530  -14.8336 N   0  0  0  0  0  0  0  0  0  0  0  0
   12.5483   15.9271  -11.9337 N   0  0  0  0  0  0  0  0  0  0  0  0
   10.6681   14.4049  -12.1703 N   0  0  0  0  0  0  0  0  0  0  0  0
   14.6223   15.8028  -15.9503 C   0  0  0  0  0  0  0  0  0  0  0  0
   13.8964   16.0601  -13.9605 C   0  0  0  0  0  0  0  0  0  0  0  0
   13.6208   16.4216  -12.6287 C   0  0  0  0  0  0  0  0  0  0  0  0
   11.7917   15.0463  -12.6105 C   0  0  0  0  0  0  0  0  0  0  0  0
   10.1949   13.5711  -13.1650 C   0  0  0  0  0  0  0  0  0  0  0  0
   11.0352   13.6670  -14.2621 C   0  0  0  0  0  0  0  0  0  0  0  0
   12.0102   14.6242  -13.9014 C   0  0  0  0  0  0  0  0  0  0  0  0
   13.0646   15.1480  -14.5852 C   0  0  0  0  0  0  0  0  0  0  0  0
   10.2681   14.5337  -11.2518 H   0  0  0  0  0  0  0  0  0  0  0  0
   10.9734   13.9022  -18.4236 N   0  0  0  0  0  0  0  0  0  0  0  0
    9.6684   13.4010  -18.4307 C   0  0  0  0  0  0  0  0  0  0  0  0
   11.8129   13.6879  -19.6049 C   0  0  0  0  0  0  0  0  0  0  0  0
   13.1872   13.1485  -19.2163 C   0  0  0  0  0  0  0  0  0  0  0  0
   13.8551   14.0348  -18.1648 C   0  0  0  0  0  0  0  0  0  0  0  0
   12.9442   14.1937  -16.9285 C   0  0  0  0  0  0  0  0  0  0  0  0
   11.5717   14.7415  -17.3738 C   0  0  0  0  0  0  0  0  0  0  0  0
    9.2419   12.7530  -19.3867 O   0  0  0  0  0  0  0  0  0  0  0  0
    8.8090   13.6761  -17.2127 C   0  0  0  0  0  0  0  0  0  0  0  0
    6.2276   13.4584  -17.6373 N   0  0  0  0  0  0  0  0  0  0  0  0
    7.3756   13.5476  -17.4917 C   0  0  0  0  0  0  0  0  0  0  0  0
  1  5  1  0  0  0
  4  9  1  0  0  0
 22 24  1  0  0  0
 22 15  1  0  0  0
 15 14  1  0  0  0
 16 14  1  0  0  0
 16 17  1  0  0  0
 17 18  1  0  0  0
 18 19  1  0  0  0
 19  1  1  0  0  0
 19 20  1  0  0  0
  6  2  1  0  0  0
  7  3  2  0  0  0
  8  4  1  0  0  0
 10 11  1  0  0  0
 11  8  2  0  0  0
 12  1  1  0  0  0
 12  6  2  0  0  0
 20 14  1  0  0  0
 15 21  2  0  0  0
  5  2  2  0  0  0
  6  7  1  0  0  0
  8  3  1  0  0  0
  9 10  2  0  0  0
 11 12  1  0  0  0
 24 23  3  0  0  0
  4 13  1  0  0  0
M  END
> <minimizedAffinity>
-8.49904

$$$$
CHEMBL2152300


 24 27  0  0  0  0  0  0  0  0999 V2000
   10.5220   13.6456  -14.2657 N   0  0  0  0  0  0  0  0  0  0  0  0
    8.4268   13.0126  -14.7560 N   0  0  0  0  0  0  0  0  0  0  0  0
    9.9119   12.2969  -18.1311 N   0  0  0  0  0  0  0  0  0  0  0  0
   12.2759   12.7155  -18.5110 N   0  0  0  0  0  0  0  0  0  0  0  0
    9.2232   13.4983  -13.8262 C   0  0  0  0  0  0  0  0  0  0  0  0
    9.2277   12.8333  -15.8536 C   0  0  0  0  0  0  0  0  0  0  0  0
    8.9544   12.3679  -17.1532 C   0  0  0  0  0  0  0  0  0  0  0  0
   11.1422   12.6791  -17.7486 C   0  0  0  0  0  0  0  0  0  0  0  0
   13.3348   13.1543  -17.7399 C   0  0  0  0  0  0  0  0  0  0  0  0
   12.8788   13.3935  -16.4538 C   0  0  0  0  0  0  0  0  0  0  0  0
   11.4930   13.1200  -16.4936 C   0  0  0  0  0  0  0  0  0  0  0  0
   10.5222   13.2104  -15.5433 C   0  0  0  0  0  0  0  0  0  0  0  0
   12.3094   12.4515  -19.4853 H   0  0  0  0  0  0  0  0  0  0  0  0
   13.2687   16.0715  -13.3570 N   0  0  0  0  0  0  0  0  0  0  0  0
   14.4795   16.5041  -13.9057 C   0  0  0  0  0  0  0  0  0  0  0  0
   13.0409   16.2638  -11.9227 C   0  0  0  0  0  0  0  0  0  0  0  0
   12.5365   14.9813  -11.2659 C   0  0  0  0  0  0  0  0  0  0  0  0
   11.3109   14.4289  -11.9940 C   0  0  0  0  0  0  0  0  0  0  0  0
   11.6198   14.2093  -13.4906 C   0  0  0  0  0  0  0  0  0  0  0  0
   12.1234   15.5319  -14.1064 C   0  0  0  0  0  0  0  0  0  0  0  0
   15.3586   16.9952  -13.1974 O   0  0  0  0  0  0  0  0  0  0  0  0
   14.6691   16.3319  -15.3998 C   0  0  0  0  0  0  0  0  0  0  0  0
   16.3931   18.0614  -16.3631 N   0  0  0  0  0  0  0  0  0  0  0  0
   15.6535   17.2651  -15.9559 C   0  0  0  0  0  0  0  0  0  0  0  0
  1  5  1  0  0  0
  4  9  1  0  0  0
 22 24  1  0  0  0
 22 15  1  0  0  0
 15 14  1  0  0  0
 16 14  1  0  0  0
 16 17  1  0  0  0
 17 18  1  0  0  0
 18 19  1  0  0  0
 19  1  1  0  0  0
 19 20  1  0  0  0
  6  2  1  0  0  0
  7  3  2  0  0  0
  8  4  1  0  0  0
 10 11  1  0  0  0
 11  8  2  0  0  0
 12  1  1  0  0  0
 12  6  2  0  0  0
 20 14  1  0  0  0
 15 21  2  0  0  0
  5  2  2  0  0  0
  6  7  1  0  0  0
  8  3  1  0  0  0
  9 10  2  0  0  0
 11 12  1  0  0  0
 24 23  3  0  0  0
  4 13  1  0  0  0
M  END
> <minimizedAffinity>
-8.43243

$$$$
CHEMBL2152300


 24 27  0  0  0  0  0  0  0  0999 V2000
   10.8349   13.8612  -13.6241 N   0  0  0  0  0  0  0  0  0  0  0  0
   10.8407   14.6937  -11.5413 N   0  0  0  0  0  0  0  0  0  0  0  0
   13.9645   16.4147  -12.7199 N   0  0  0  0  0  0  0  0  0  0  0  0
   14.7408   16.0582  -14.9955 N   0  0  0  0  0  0  0  0  0  0  0  0
   10.2178   13.9039  -12.3916 C   0  0  0  0  0  0  0  0  0  0  0  0
   11.9120   15.1915  -12.2362 C   0  0  0  0  0  0  0  0  0  0  0  0
   12.9523   16.0637  -11.8654 C   0  0  0  0  0  0  0  0  0  0  0  0
   13.8755   15.8852  -13.9519 C   0  0  0  0  0  0  0  0  0  0  0  0
   14.2838   15.3550  -16.0933 C   0  0  0  0  0  0  0  0  0  0  0  0
   13.0961   14.7270  -15.7557 C   0  0  0  0  0  0  0  0  0  0  0  0
   12.8788   15.0479  -14.3967 C   0  0  0  0  0  0  0  0  0  0  0  0
   11.8970   14.6880  -13.5247 C   0  0  0  0  0  0  0  0  0  0  0  0
   15.5765   16.6234  -14.9478 H   0  0  0  0  0  0  0  0  0  0  0  0
    9.7383   13.0638  -17.1479 N   0  0  0  0  0  0  0  0  0  0  0  0
    8.6481   13.3521  -17.9739 C   0  0  0  0  0  0  0  0  0  0  0  0
   10.5755   11.9058  -17.4710 C   0  0  0  0  0  0  0  0  0  0  0  0
   10.8121   11.0337  -16.2405 C   0  0  0  0  0  0  0  0  0  0  0  0
   11.3590   11.8559  -15.0734 C   0  0  0  0  0  0  0  0  0  0  0  0
   10.4187   13.0373  -14.7518 C   0  0  0  0  0  0  0  0  0  0  0  0
   10.2135   13.8863  -16.0244 C   0  0  0  0  0  0  0  0  0  0  0  0
    8.3641   12.6270  -18.9275 O   0  0  0  0  0  0  0  0  0  0  0  0
    7.8263   14.5814  -17.6404 C   0  0  0  0  0  0  0  0  0  0  0  0
    5.2514   14.0908  -17.7856 N   0  0  0  0  0  0  0  0  0  0  0  0
    6.3835   14.3254  -17.6825 C   0  0  0  0  0  0  0  0  0  0  0  0
  1  5  1  0  0  0
  4  9  1  0  0  0
 22 24  1  0  0  0
 22 15  1  0  0  0
 15 14  1  0  0  0
 16 14  1  0  0  0
 16 17  1  0  0  0
 17 18  1  0  0  0
 18 19  1  0  0  0
 19  1  1  0  0  0
 19 20  1  0  0  0
  6  2  1  0  0  0
  7  3  2  0  0  0
  8  4  1  0  0  0
 10 11  1  0  0  0
 11  8  2  0  0  0
 12  1  1  0  0  0
 12  6  2  0  0  0
 20 14  1  0  0  0
 15 21  2  0  0  0
  5  2  2  0  0  0
  6  7  1  0  0  0
  8  3  1  0  0  0
  9 10  2  0  0  0
 11 12  1  0  0  0
 24 23  3  0  0  0
  4 13  1  0  0  0
M  END
> <minimizedAffinity>
-7.97763

$$$$
CHEMBL2152300


 24 27  0  0  0  0  0  0  0  0999 V2000
   12.9594   14.8818  -14.8342 N   0  0  0  0  0  0  0  0  0  0  0  0
   13.5052   15.9531  -12.9407 N   0  0  0  0  0  0  0  0  0  0  0  0
   10.2124   14.5919  -11.7515 N   0  0  0  0  0  0  0  0  0  0  0  0
    8.8694   13.2298  -13.2512 N   0  0  0  0  0  0  0  0  0  0  0  0
   13.8743   15.6749  -14.1740 C   0  0  0  0  0  0  0  0  0  0  0  0
   12.2994   15.3223  -12.7783 C   0  0  0  0  0  0  0  0  0  0  0  0
   11.4048   15.2648  -11.6935 C   0  0  0  0  0  0  0  0  0  0  0  0
    9.9716   13.9648  -12.9155 C   0  0  0  0  0  0  0  0  0  0  0  0
    9.0157   12.7415  -14.5351 C   0  0  0  0  0  0  0  0  0  0  0  0
   10.2396   13.1586  -15.0323 C   0  0  0  0  0  0  0  0  0  0  0  0
   10.8055   13.9526  -14.0095 C   0  0  0  0  0  0  0  0  0  0  0  0
   11.9729   14.6502  -13.9427 C   0  0  0  0  0  0  0  0  0  0  0  0
    8.0839   13.0771  -12.6349 H   0  0  0  0  0  0  0  0  0  0  0  0
   11.9759   14.5613  -18.4653 N   0  0  0  0  0  0  0  0  0  0  0  0
   10.9164   14.0181  -19.1979 C   0  0  0  0  0  0  0  0  0  0  0  0
   13.2513   14.7961  -19.1466 C   0  0  0  0  0  0  0  0  0  0  0  0
   14.4205   14.2367  -18.3399 C   0  0  0  0  0  0  0  0  0  0  0  0
   14.4073   14.7626  -16.9045 C   0  0  0  0  0  0  0  0  0  0  0  0
   13.0566   14.4533  -16.2237 C   0  0  0  0  0  0  0  0  0  0  0  0
   11.9107   15.0395  -17.0755 C   0  0  0  0  0  0  0  0  0  0  0  0
   11.0581   13.6989  -20.3785 O   0  0  0  0  0  0  0  0  0  0  0  0
    9.5961   13.8273  -18.4780 C   0  0  0  0  0  0  0  0  0  0  0  0
    8.3345   11.6368  -19.1862 N   0  0  0  0  0  0  0  0  0  0  0  0
    8.9223   12.5808  -18.8539 C   0  0  0  0  0  0  0  0  0  0  0  0
  1  5  1  0  0  0
  4  9  1  0  0  0
 22 24  1  0  0  0
 22 15  1  0  0  0
 15 14  1  0  0  0
 16 14  1  0  0  0
 16 17  1  0  0  0
 17 18  1  0  0  0
 18 19  1  0  0  0
 19  1  1  0  0  0
 19 20  1  0  0  0
  6  2  1  0  0  0
  7  3  2  0  0  0
  8  4  1  0  0  0
 10 11  1  0  0  0
 11  8  2  0  0  0
 12  1  1  0  0  0
 12  6  2  0  0  0
 20 14  1  0  0  0
 15 21  2  0  0  0
  5  2  2  0  0  0
  6  7  1  0  0  0
  8  3  1  0  0  0
  9 10  2  0  0  0
 11 12  1  0  0  0
 24 23  3  0  0  0
  4 13  1  0  0  0
M  END
> <minimizedAffinity>
-7.79897

$$$$
CHEMBL2152300


 24 27  0  0  0  0  0  0  0  0999 V2000
   13.4397   15.6060  -14.0878 N   0  0  0  0  0  0  0  0  0  0  0  0
   13.3865   15.9744  -11.8760 N   0  0  0  0  0  0  0  0  0  0  0  0
   10.1179   14.1376  -12.1023 N   0  0  0  0  0  0  0  0  0  0  0  0
    9.3500   13.3237  -14.2601 N   0  0  0  0  0  0  0  0  0  0  0  0
   14.0640   16.1599  -12.9901 C   0  0  0  0  0  0  0  0  0  0  0  0
   12.2701   15.2729  -12.2500 C   0  0  0  0  0  0  0  0  0  0  0  0
   11.1648   14.8011  -11.5178 C   0  0  0  0  0  0  0  0  0  0  0  0
   10.2376   13.9447  -13.4269 C   0  0  0  0  0  0  0  0  0  0  0  0
    9.8523   13.3201  -15.5470 C   0  0  0  0  0  0  0  0  0  0  0  0
   11.0917   13.9389  -15.5419 C   0  0  0  0  0  0  0  0  0  0  0  0
   11.2959   14.3518  -14.2059 C   0  0  0  0  0  0  0  0  0  0  0  0
   12.3134   15.0342  -13.6121 C   0  0  0  0  0  0  0  0  0  0  0  0
    8.4706   12.9308  -13.9559 H   0  0  0  0  0  0  0  0  0  0  0  0
   15.7418   16.5176  -16.9381 N   0  0  0  0  0  0  0  0  0  0  0  0
   16.2278   17.6862  -17.5319 C   0  0  0  0  0  0  0  0  0  0  0  0
   15.7764   15.2728  -17.7097 C   0  0  0  0  0  0  0  0  0  0  0  0
   14.4313   14.5526  -17.6583 C   0  0  0  0  0  0  0  0  0  0  0  0
   13.9663   14.3460  -16.2166 C   0  0  0  0  0  0  0  0  0  0  0  0
   13.9111   15.6929  -15.4641 C   0  0  0  0  0  0  0  0  0  0  0  0
   15.2916   16.3784  -15.5444 C   0  0  0  0  0  0  0  0  0  0  0  0
   16.6353   17.6865  -18.6936 O   0  0  0  0  0  0  0  0  0  0  0  0
   16.2199   18.9494  -16.6941 C   0  0  0  0  0  0  0  0  0  0  0  0
   18.5505   19.5795  -15.6631 N   0  0  0  0  0  0  0  0  0  0  0  0
   17.5374   19.2643  -16.1338 C   0  0  0  0  0  0  0  0  0  0  0  0
  1  5  1  0  0  0
  4  9  1  0  0  0
 22 24  1  0  0  0
 22 15  1  0  0  0
 15 14  1  0  0  0
 16 14  1  0  0  0
 16 17  1  0  0  0
 17 18  1  0  0  0
 18 19  1  0  0  0
 19  1  1  0  0  0
 19 20  1  0  0  0
  6  2  1  0  0  0
  7  3  2  0  0  0
  8  4  1  0  0  0
 10 11  1  0  0  0
 11  8  2  0  0  0
 12  1  1  0  0  0
 12  6  2  0  0  0
 20 14  1  0  0  0
 15 21  2  0  0  0
  5  2  2  0  0  0
  6  7  1  0  0  0
  8  3  1  0  0  0
  9 10  2  0  0  0
 11 12  1  0  0  0
 24 23  3  0  0  0
  4 13  1  0  0  0
M  END
> <minimizedAffinity>
-7.63880

$$$$
CHEMBL2152300


 24 27  0  0  0  0  0  0  0  0999 V2000
   11.4335   13.8174  -18.5380 N   0  0  0  0  0  0  0  0  0  0  0  0
   11.1163   14.2362  -20.7186 N   0  0  0  0  0  0  0  0  0  0  0  0
   14.5219   15.7985  -20.4538 N   0  0  0  0  0  0  0  0  0  0  0  0
   15.6791   15.7895  -18.3163 N   0  0  0  0  0  0  0  0  0  0  0  0
   10.5947   13.7141  -19.6277 C   0  0  0  0  0  0  0  0  0  0  0  0
   12.3462   14.7050  -20.3368 C   0  0  0  0  0  0  0  0  0  0  0  0
   13.3586   15.3792  -21.0445 C   0  0  0  0  0  0  0  0  0  0  0  0
   14.6379   15.4926  -19.1503 C   0  0  0  0  0  0  0  0  0  0  0  0
   15.4172   15.2867  -17.0566 C   0  0  0  0  0  0  0  0  0  0  0  0
   14.1907   14.6431  -17.0812 C   0  0  0  0  0  0  0  0  0  0  0  0
   13.7066   14.8155  -18.3976 C   0  0  0  0  0  0  0  0  0  0  0  0
   12.5449   14.4317  -18.9951 C   0  0  0  0  0  0  0  0  0  0  0  0
   16.5050   16.2954  -18.6029 H   0  0  0  0  0  0  0  0  0  0  0  0
   10.5820   14.1574  -14.8754 N   0  0  0  0  0  0  0  0  0  0  0  0
   11.1858   14.6724  -13.7245 C   0  0  0  0  0  0  0  0  0  0  0  0
    9.5039   13.1775  -14.7227 C   0  0  0  0  0  0  0  0  0  0  0  0
    9.7270   11.9649  -15.6230 C   0  0  0  0  0  0  0  0  0  0  0  0
    9.9475   12.3849  -17.0764 C   0  0  0  0  0  0  0  0  0  0  0  0
   11.1182   13.3857  -17.1823 C   0  0  0  0  0  0  0  0  0  0  0  0
   10.8441   14.5903  -16.2569 C   0  0  0  0  0  0  0  0  0  0  0  0
   10.8554   14.2816  -12.6047 O   0  0  0  0  0  0  0  0  0  0  0  0
   12.2679   15.7170  -13.9124 C   0  0  0  0  0  0  0  0  0  0  0  0
   13.8018   15.9651  -11.7965 N   0  0  0  0  0  0  0  0  0  0  0  0
   13.1533   15.8294  -12.7494 C   0  0  0  0  0  0  0  0  0  0  0  0
  1  5  1  0  0  0
  4  9  1  0  0  0
 22 24  1  0  0  0
 22 15  1  0  0  0
 15 14  1  0  0  0
 16 14  1  0  0  0
 16 17  1  0  0  0
 17 18  1  0  0  0
 18 19  1  0  0  0
 19  1  1  0  0  0
 19 20  1  0  0  0
  6  2  1  0  0  0
  7  3  2  0  0  0
  8  4  1  0  0  0
 10 11  1  0  0  0
 11  8  2  0  0  0
 12  1  1  0  0  0
 12  6  2  0  0  0
 20 14  1  0  0  0
 15 21  2  0  0  0
  5  2  2  0  0  0
  6  7  1  0  0  0
  8  3  1  0  0  0
  9 10  2  0  0  0
 11 12  1  0  0  0
 24 23  3  0  0  0
  4 13  1  0  0  0
M  END
> <minimizedAffinity>
-7.51168

$$$$
CHEMBL2152300


 24 27  0  0  0  0  0  0  0  0999 V2000
   13.0913   14.2270  -17.8948 N   0  0  0  0  0  0  0  0  0  0  0  0
   13.6884   12.9413  -19.6331 N   0  0  0  0  0  0  0  0  0  0  0  0
    9.9828   12.4037  -19.9310 N   0  0  0  0  0  0  0  0  0  0  0  0
    8.4856   13.4931  -18.3563 N   0  0  0  0  0  0  0  0  0  0  0  0
   14.1195   13.7127  -18.6565 C   0  0  0  0  0  0  0  0  0  0  0  0
   12.3232   12.9428  -19.5126 C   0  0  0  0  0  0  0  0  0  0  0  0
   11.3123   12.2922  -20.2442 C   0  0  0  0  0  0  0  0  0  0  0  0
    9.7117   13.2055  -18.8871 C   0  0  0  0  0  0  0  0  0  0  0  0
    8.6361   14.3702  -17.2997 C   0  0  0  0  0  0  0  0  0  0  0  0
    9.9821   14.6635  -17.1540 C   0  0  0  0  0  0  0  0  0  0  0  0
   10.6394   13.8942  -18.1404 C   0  0  0  0  0  0  0  0  0  0  0  0
   11.9574   13.7486  -18.4491 C   0  0  0  0  0  0  0  0  0  0  0  0
    7.6168   13.1138  -18.7049 H   0  0  0  0  0  0  0  0  0  0  0  0
   13.0190   15.1508  -14.2347 N   0  0  0  0  0  0  0  0  0  0  0  0
   12.0583   15.2822  -13.2278 C   0  0  0  0  0  0  0  0  0  0  0  0
   14.3062   15.8301  -14.0682 C   0  0  0  0  0  0  0  0  0  0  0  0
   14.6856   16.6118  -15.3235 C   0  0  0  0  0  0  0  0  0  0  0  0
   14.6384   15.7234  -16.5668 C   0  0  0  0  0  0  0  0  0  0  0  0
   13.2495   15.0655  -16.7135 C   0  0  0  0  0  0  0  0  0  0  0  0
   12.9147   14.2888  -15.4224 C   0  0  0  0  0  0  0  0  0  0  0  0
   12.2648   15.9888  -12.2409 O   0  0  0  0  0  0  0  0  0  0  0  0
   10.7531   14.5325  -13.4070 C   0  0  0  0  0  0  0  0  0  0  0  0
   10.0163   13.3770  -11.1679 N   0  0  0  0  0  0  0  0  0  0  0  0
   10.3095   13.8678  -12.1780 C   0  0  0  0  0  0  0  0  0  0  0  0
  1  5  1  0  0  0
  4  9  1  0  0  0
 22 24  1  0  0  0
 22 15  1  0  0  0
 15 14  1  0  0  0
 16 14  1  0  0  0
 16 17  1  0  0  0
 17 18  1  0  0  0
 18 19  1  0  0  0
 19  1  1  0  0  0
 19 20  1  0  0  0
  6  2  1  0  0  0
  7  3  2  0  0  0
  8  4  1  0  0  0
 10 11  1  0  0  0
 11  8  2  0  0  0
 12  1  1  0  0  0
 12  6  2  0  0  0
 20 14  1  0  0  0
 15 21  2  0  0  0
  5  2  2  0  0  0
  6  7  1  0  0  0
  8  3  1  0  0  0
  9 10  2  0  0  0
 11 12  1  0  0  0
 24 23  3  0  0  0
  4 13  1  0  0  0
M  END
> <minimizedAffinity>
-7.49708

$$$$
CHEMBL2152300


 24 27  0  0  0  0  0  0  0  0999 V2000
   11.0328   13.7298  -16.5595 N   0  0  0  0  0  0  0  0  0  0  0  0
   12.1428   13.8706  -14.6155 N   0  0  0  0  0  0  0  0  0  0  0  0
   14.9381   15.0774  -16.8152 N   0  0  0  0  0  0  0  0  0  0  0  0
   14.5837   15.2496  -19.2137 N   0  0  0  0  0  0  0  0  0  0  0  0
   11.0052   13.5440  -15.1933 C   0  0  0  0  0  0  0  0  0  0  0  0
   12.9555   14.2866  -15.6377 C   0  0  0  0  0  0  0  0  0  0  0  0
   14.2892   14.7351  -15.6578 C   0  0  0  0  0  0  0  0  0  0  0  0
   14.1958   14.9801  -17.9313 C   0  0  0  0  0  0  0  0  0  0  0  0
   13.5204   15.0383  -20.0699 C   0  0  0  0  0  0  0  0  0  0  0  0
   12.4233   14.6371  -19.3253 C   0  0  0  0  0  0  0  0  0  0  0  0
   12.8822   14.5758  -17.9902 C   0  0  0  0  0  0  0  0  0  0  0  0
   12.2631   14.2128  -16.8332 C   0  0  0  0  0  0  0  0  0  0  0  0
   15.5102   15.5600  -19.4695 H   0  0  0  0  0  0  0  0  0  0  0  0
    9.1596   11.7868  -19.1997 N   0  0  0  0  0  0  0  0  0  0  0  0
    9.3449   11.4338  -20.5396 C   0  0  0  0  0  0  0  0  0  0  0  0
    7.8028   11.7568  -18.6483 C   0  0  0  0  0  0  0  0  0  0  0  0
    7.4841   13.0446  -17.8929 C   0  0  0  0  0  0  0  0  0  0  0  0
    8.5483   13.3479  -16.8380 C   0  0  0  0  0  0  0  0  0  0  0  0
    9.9508   13.4063  -17.4805 C   0  0  0  0  0  0  0  0  0  0  0  0
   10.2240   12.0842  -18.2286 C   0  0  0  0  0  0  0  0  0  0  0  0
    8.3881   11.1469  -21.2593 O   0  0  0  0  0  0  0  0  0  0  0  0
   10.7648   11.4316  -21.0703 C   0  0  0  0  0  0  0  0  0  0  0  0
   10.9052   12.3461  -23.5271 N   0  0  0  0  0  0  0  0  0  0  0  0
   10.8511   11.9022  -22.4560 C   0  0  0  0  0  0  0  0  0  0  0  0
  1  5  1  0  0  0
  4  9  1  0  0  0
 22 24  1  0  0  0
 22 15  1  0  0  0
 15 14  1  0  0  0
 16 14  1  0  0  0
 16 17  1  0  0  0
 17 18  1  0  0  0
 18 19  1  0  0  0
 19  1  1  0  0  0
 19 20  1  0  0  0
  6  2  1  0  0  0
  7  3  2  0  0  0
  8  4  1  0  0  0
 10 11  1  0  0  0
 11  8  2  0  0  0
 12  1  1  0  0  0
 12  6  2  0  0  0
 20 14  1  0  0  0
 15 21  2  0  0  0
  5  2  2  0  0  0
  6  7  1  0  0  0
  8  3  1  0  0  0
  9 10  2  0  0  0
 11 12  1  0  0  0
 24 23  3  0  0  0
  4 13  1  0  0  0
M  END
> <minimizedAffinity>
-7.35693

$$$$
CHEMBL2314501


 27 30  0  0  0  0  0  0  0  0999 V2000
   11.8395   14.7409  -12.4433 N   0  0  0  0  0  0  0  0  0  0  0  0
   13.7990   15.7835  -11.5676 N   0  0  0  0  0  0  0  0  0  0  0  0
   15.2105   16.7406  -13.2303 N   0  0  0  0  0  0  0  0  0  0  0  0
   12.2673   14.7723  -10.1793 N   0  0  0  0  0  0  0  0  0  0  0  0
   12.6490   15.1203  -11.4430 C   0  0  0  0  0  0  0  0  0  0  0  0
   14.0833   16.0678  -12.8413 C   0  0  0  0  0  0  0  0  0  0  0  0
   13.3362   15.7441  -13.9649 C   0  0  0  0  0  0  0  0  0  0  0  0
   12.1383   15.0080  -13.7524 C   0  0  0  0  0  0  0  0  0  0  0  0
   14.0751   16.2936  -15.0536 C   0  0  0  0  0  0  0  0  0  0  0  0
   15.2417   16.8961  -14.5974 C   0  0  0  0  0  0  0  0  0  0  0  0
   15.9045   17.0650  -12.5745 H   0  0  0  0  0  0  0  0  0  0  0  0
   11.4580   14.1831  -10.0909 H   0  0  0  0  0  0  0  0  0  0  0  0
   12.9127   14.9521   -9.4306 H   0  0  0  0  0  0  0  0  0  0  0  0
   11.2740   14.5084  -14.7196 N   0  0  0  0  0  0  0  0  0  0  0  0
   11.5489   13.6862  -17.8906 N   0  0  0  0  0  0  0  0  0  0  0  0
   11.0401   15.2964  -15.9415 C   0  0  0  0  0  0  0  0  0  0  0  0
   11.9800   14.8503  -17.0842 C   0  0  0  0  0  0  0  0  0  0  0  0
   11.0086   12.5333  -17.1648 C   0  0  0  0  0  0  0  0  0  0  0  0
   11.4756   12.2793  -15.7287 C   0  0  0  0  0  0  0  0  0  0  0  0
   10.7261   13.1670  -14.7382 C   0  0  0  0  0  0  0  0  0  0  0  0
   12.6130   13.2953  -18.8160 C   0  0  0  0  0  0  0  0  0  0  0  0
   16.3107   17.5721  -15.3519 C   0  0  0  0  0  0  0  0  0  0  0  0
   17.3242   18.3106  -14.7252 C   0  0  0  0  0  0  0  0  0  0  0  0
   18.3215   18.9446  -15.4785 C   0  0  0  0  0  0  0  0  0  0  0  0
   18.3235   18.8496  -16.8679 C   0  0  0  0  0  0  0  0  0  0  0  0
   17.3307   18.1184  -17.5076 C   0  0  0  0  0  0  0  0  0  0  0  0
   16.3372   17.4871  -16.7552 C   0  0  0  0  0  0  0  0  0  0  0  0
  3  6  1  0  0  0
  5  2  2  0  0  0
  5  4  1  0  0  0
  6  7  2  0  0  0
  7  9  1  0  0  0
  8 14  1  0  0  0
  8  1  2  0  0  0
 16 14  1  0  0  0
 16 17  1  0  0  0
 17 15  1  0  0  0
 18 15  1  0  0  0
 18 19  1  0  0  0
 19 20  1  0  0  0
 20 14  1  0  0  0
 21 15  1  0  0  0
 10  3  1  0  0  0
 10 22  1  0  0  0
 23 24  2  0  0  0
 25 26  2  0  0  0
 27 22  2  0  0  0
  5  1  1  0  0  0
  6  2  1  0  0  0
  7  8  1  0  0  0
  9 10  2  0  0  0
 22 23  1  0  0  0
 24 25  1  0  0  0
 26 27  1  0  0  0
  3 11  1  0  0  0
  4 12  1  0  0  0
  4 13  1  0  0  0
M  END
> <minimizedAffinity>
-9.82427

$$$$
CHEMBL2314501


 27 30  0  0  0  0  0  0  0  0999 V2000
   10.6525   13.7778  -13.2933 N   0  0  0  0  0  0  0  0  0  0  0  0
   11.9919   15.1982  -11.9216 N   0  0  0  0  0  0  0  0  0  0  0  0
   13.7837   16.2542  -13.0822 N   0  0  0  0  0  0  0  0  0  0  0  0
   10.1988   14.0485  -11.0504 N   0  0  0  0  0  0  0  0  0  0  0  0
   10.9748   14.3614  -12.1291 C   0  0  0  0  0  0  0  0  0  0  0  0
   12.6905   15.4314  -13.0359 C   0  0  0  0  0  0  0  0  0  0  0  0
   12.4641   14.9039  -14.2992 C   0  0  0  0  0  0  0  0  0  0  0  0
   11.3798   13.9939  -14.4330 C   0  0  0  0  0  0  0  0  0  0  0  0
   13.4771   15.4882  -15.1151 C   0  0  0  0  0  0  0  0  0  0  0  0
   14.3012   16.3111  -14.3563 C   0  0  0  0  0  0  0  0  0  0  0  0
   14.1353   16.7388  -12.2707 H   0  0  0  0  0  0  0  0  0  0  0  0
    9.4987   13.3393  -11.1798 H   0  0  0  0  0  0  0  0  0  0  0  0
   10.4899   14.3896  -10.1514 H   0  0  0  0  0  0  0  0  0  0  0  0
   11.0104   13.2853  -15.5704 N   0  0  0  0  0  0  0  0  0  0  0  0
    8.2365   12.9338  -17.2992 N   0  0  0  0  0  0  0  0  0  0  0  0
    9.9336   12.2859  -15.4686 C   0  0  0  0  0  0  0  0  0  0  0  0
    8.5667   12.8938  -15.8568 C   0  0  0  0  0  0  0  0  0  0  0  0
    9.2935   13.3717  -18.2152 C   0  0  0  0  0  0  0  0  0  0  0  0
   10.3694   14.3305  -17.6974 C   0  0  0  0  0  0  0  0  0  0  0  0
   11.4489   13.5823  -16.9192 C   0  0  0  0  0  0  0  0  0  0  0  0
    6.9937   13.6774  -17.5088 C   0  0  0  0  0  0  0  0  0  0  0  0
   15.4766   17.1002  -14.7620 C   0  0  0  0  0  0  0  0  0  0  0  0
   16.3824   17.6340  -13.8347 C   0  0  0  0  0  0  0  0  0  0  0  0
   17.4868   18.3848  -14.2599 C   0  0  0  0  0  0  0  0  0  0  0  0
   17.7048   18.6125  -15.6164 C   0  0  0  0  0  0  0  0  0  0  0  0
   16.8214   18.0879  -16.5513 C   0  0  0  0  0  0  0  0  0  0  0  0
   15.7209   17.3399  -16.1259 C   0  0  0  0  0  0  0  0  0  0  0  0
  3  6  1  0  0  0
  5  2  2  0  0  0
  5  4  1  0  0  0
  6  7  2  0  0  0
  7  9  1  0  0  0
  8 14  1  0  0  0
  8  1  2  0  0  0
 16 14  1  0  0  0
 16 17  1  0  0  0
 17 15  1  0  0  0
 18 15  1  0  0  0
 18 19  1  0  0  0
 19 20  1  0  0  0
 20 14  1  0  0  0
 21 15  1  0  0  0
 10  3  1  0  0  0
 10 22  1  0  0  0
 23 24  2  0  0  0
 25 26  2  0  0  0
 27 22  2  0  0  0
  5  1  1  0  0  0
  6  2  1  0  0  0
  7  8  1  0  0  0
  9 10  2  0  0  0
 22 23  1  0  0  0
 24 25  1  0  0  0
 26 27  1  0  0  0
  3 11  1  0  0  0
  4 12  1  0  0  0
  4 13  1  0  0  0
M  END
> <minimizedAffinity>
-9.58020

$$$$
CHEMBL2314501


 27 30  0  0  0  0  0  0  0  0999 V2000
    9.5908   12.6350  -18.7805 N   0  0  0  0  0  0  0  0  0  0  0  0
    8.6277   12.8788  -16.6111 N   0  0  0  0  0  0  0  0  0  0  0  0
   10.1027   13.8268  -14.9991 N   0  0  0  0  0  0  0  0  0  0  0  0
    7.4228   11.9809  -18.3541 N   0  0  0  0  0  0  0  0  0  0  0  0
    8.5876   12.5263  -17.8964 C   0  0  0  0  0  0  0  0  0  0  0  0
    9.8108   13.3925  -16.2643 C   0  0  0  0  0  0  0  0  0  0  0  0
   10.9241   13.5683  -17.0737 C   0  0  0  0  0  0  0  0  0  0  0  0
   10.8134   13.1380  -18.4244 C   0  0  0  0  0  0  0  0  0  0  0  0
   11.8956   14.1649  -16.2173 C   0  0  0  0  0  0  0  0  0  0  0  0
   11.3897   14.3095  -14.9308 C   0  0  0  0  0  0  0  0  0  0  0  0
    9.4380   13.7838  -14.2419 H   0  0  0  0  0  0  0  0  0  0  0  0
    7.4238   11.6185  -19.2915 H   0  0  0  0  0  0  0  0  0  0  0  0
    6.7001   11.7923  -17.6822 H   0  0  0  0  0  0  0  0  0  0  0  0
   11.8099   13.1404  -19.3935 N   0  0  0  0  0  0  0  0  0  0  0  0
   12.5696   15.0609  -21.9511 N   0  0  0  0  0  0  0  0  0  0  0  0
   11.4245   13.0505  -20.8119 C   0  0  0  0  0  0  0  0  0  0  0  0
   11.3155   14.4526  -21.4527 C   0  0  0  0  0  0  0  0  0  0  0  0
   13.7504   14.9597  -21.0889 C   0  0  0  0  0  0  0  0  0  0  0  0
   13.5526   14.8603  -19.5736 C   0  0  0  0  0  0  0  0  0  0  0  0
   13.2086   13.4336  -19.1533 C   0  0  0  0  0  0  0  0  0  0  0  0
   12.3240   16.4395  -22.3762 C   0  0  0  0  0  0  0  0  0  0  0  0
   12.0303   14.8542  -13.7218 C   0  0  0  0  0  0  0  0  0  0  0  0
   11.5543   14.5858  -12.4307 C   0  0  0  0  0  0  0  0  0  0  0  0
   12.1883   15.1276  -11.3044 C   0  0  0  0  0  0  0  0  0  0  0  0
   13.3077   15.9435  -11.4494 C   0  0  0  0  0  0  0  0  0  0  0  0
   13.7978   16.2174  -12.7200 C   0  0  0  0  0  0  0  0  0  0  0  0
   13.1645   15.6767  -13.8417 C   0  0  0  0  0  0  0  0  0  0  0  0
  3  6  1  0  0  0
  5  2  2  0  0  0
  5  4  1  0  0  0
  6  7  2  0  0  0
  7  9  1  0  0  0
  8 14  1  0  0  0
  8  1  2  0  0  0
 16 14  1  0  0  0
 16 17  1  0  0  0
 17 15  1  0  0  0
 18 15  1  0  0  0
 18 19  1  0  0  0
 19 20  1  0  0  0
 20 14  1  0  0  0
 21 15  1  0  0  0
 10  3  1  0  0  0
 10 22  1  0  0  0
 23 24  2  0  0  0
 25 26  2  0  0  0
 27 22  2  0  0  0
  5  1  1  0  0  0
  6  2  1  0  0  0
  7  8  1  0  0  0
  9 10  2  0  0  0
 22 23  1  0  0  0
 24 25  1  0  0  0
 26 27  1  0  0  0
  3 11  1  0  0  0
  4 12  1  0  0  0
  4 13  1  0  0  0
M  END
> <minimizedAffinity>
-9.52189

$$$$
CHEMBL2314501


 27 30  0  0  0  0  0  0  0  0999 V2000
    9.3210   12.7718  -18.9433 N   0  0  0  0  0  0  0  0  0  0  0  0
    8.5697   13.0840  -16.7002 N   0  0  0  0  0  0  0  0  0  0  0  0
   10.2082   14.0313  -15.2544 N   0  0  0  0  0  0  0  0  0  0  0  0
    7.1888   12.1777  -18.3027 N   0  0  0  0  0  0  0  0  0  0  0  0
    8.4025   12.7054  -17.9677 C   0  0  0  0  0  0  0  0  0  0  0  0
    9.7906   13.5772  -16.4766 C   0  0  0  0  0  0  0  0  0  0  0  0
   10.8271   13.7097  -17.3896 C   0  0  0  0  0  0  0  0  0  0  0  0
   10.5818   13.2535  -18.7138 C   0  0  0  0  0  0  0  0  0  0  0  0
   11.8866   14.3016  -16.6412 C   0  0  0  0  0  0  0  0  0  0  0  0
   11.5060   14.4852  -15.3170 C   0  0  0  0  0  0  0  0  0  0  0  0
    9.6163   14.0200  -14.4380 H   0  0  0  0  0  0  0  0  0  0  0  0
    7.0946   11.7955  -19.2273 H   0  0  0  0  0  0  0  0  0  0  0  0
    6.5280   12.0203  -17.5624 H   0  0  0  0  0  0  0  0  0  0  0  0
   11.4836   13.2121  -19.7709 N   0  0  0  0  0  0  0  0  0  0  0  0
   11.2547   12.7100  -23.0117 N   0  0  0  0  0  0  0  0  0  0  0  0
   11.5962   11.9759  -20.5631 C   0  0  0  0  0  0  0  0  0  0  0  0
   10.6980   12.0318  -21.8195 C   0  0  0  0  0  0  0  0  0  0  0  0
   11.9462   13.9837  -22.7943 C   0  0  0  0  0  0  0  0  0  0  0  0
   11.5402   14.8503  -21.5987 C   0  0  0  0  0  0  0  0  0  0  0  0
   12.1923   14.3553  -20.3102 C   0  0  0  0  0  0  0  0  0  0  0  0
   10.2303   12.8185  -24.0510 C   0  0  0  0  0  0  0  0  0  0  0  0
   12.2679   15.0404  -14.1856 C   0  0  0  0  0  0  0  0  0  0  0  0
   11.8328   14.9300  -12.8575 C   0  0  0  0  0  0  0  0  0  0  0  0
   12.5835   15.4767  -11.8079 C   0  0  0  0  0  0  0  0  0  0  0  0
   13.7803   16.1399  -12.0676 C   0  0  0  0  0  0  0  0  0  0  0  0
   14.2312   16.2556  -13.3764 C   0  0  0  0  0  0  0  0  0  0  0  0
   13.4816   15.7102  -14.4215 C   0  0  0  0  0  0  0  0  0  0  0  0
  3  6  1  0  0  0
  5  2  2  0  0  0
  5  4  1  0  0  0
  6  7  2  0  0  0
  7  9  1  0  0  0
  8 14  1  0  0  0
  8  1  2  0  0  0
 16 14  1  0  0  0
 16 17  1  0  0  0
 17 15  1  0  0  0
 18 15  1  0  0  0
 18 19  1  0  0  0
 19 20  1  0  0  0
 20 14  1  0  0  0
 21 15  1  0  0  0
 10  3  1  0  0  0
 10 22  1  0  0  0
 23 24  2  0  0  0
 25 26  2  0  0  0
 27 22  2  0  0  0
  5  1  1  0  0  0
  6  2  1  0  0  0
  7  8  1  0  0  0
  9 10  2  0  0  0
 22 23  1  0  0  0
 24 25  1  0  0  0
 26 27  1  0  0  0
  3 11  1  0  0  0
  4 12  1  0  0  0
  4 13  1  0  0  0
M  END
> <minimizedAffinity>
-9.41288

$$$$
CHEMBL2314501


 27 30  0  0  0  0  0  0  0  0999 V2000
   12.3907   13.0832  -20.1380 N   0  0  0  0  0  0  0  0  0  0  0  0
   13.9365   14.7784  -19.4824 N   0  0  0  0  0  0  0  0  0  0  0  0
   13.8898   15.2822  -17.1550 N   0  0  0  0  0  0  0  0  0  0  0  0
   13.7689   14.1048  -21.6765 N   0  0  0  0  0  0  0  0  0  0  0  0
   13.3573   13.9813  -20.3806 C   0  0  0  0  0  0  0  0  0  0  0  0
   13.4580   14.5840  -18.2506 C   0  0  0  0  0  0  0  0  0  0  0  0
   12.4714   13.6897  -17.8604 C   0  0  0  0  0  0  0  0  0  0  0  0
   11.8792   12.8972  -18.8817 C   0  0  0  0  0  0  0  0  0  0  0  0
   12.3599   13.8761  -16.4512 C   0  0  0  0  0  0  0  0  0  0  0  0
   13.2276   14.8727  -16.0201 C   0  0  0  0  0  0  0  0  0  0  0  0
   14.6009   15.9951  -17.2092 H   0  0  0  0  0  0  0  0  0  0  0  0
   13.2625   13.5826  -22.3699 H   0  0  0  0  0  0  0  0  0  0  0  0
   14.4119   14.8456  -21.8934 H   0  0  0  0  0  0  0  0  0  0  0  0
   10.8290   11.9966  -18.7466 N   0  0  0  0  0  0  0  0  0  0  0  0
    7.6778   12.2102  -17.8351 N   0  0  0  0  0  0  0  0  0  0  0  0
   10.1961   11.8331  -17.4270 C   0  0  0  0  0  0  0  0  0  0  0  0
    8.9491   12.7354  -17.2882 C   0  0  0  0  0  0  0  0  0  0  0  0
    7.7298   11.5730  -19.1538 C   0  0  0  0  0  0  0  0  0  0  0  0
    8.8111   12.0131  -20.1450 C   0  0  0  0  0  0  0  0  0  0  0  0
   10.1466   11.3381  -19.8423 C   0  0  0  0  0  0  0  0  0  0  0  0
    6.6404   13.2403  -17.7702 C   0  0  0  0  0  0  0  0  0  0  0  0
   13.4447   15.4131  -14.6674 C   0  0  0  0  0  0  0  0  0  0  0  0
   14.5657   16.1872  -14.3362 C   0  0  0  0  0  0  0  0  0  0  0  0
   14.7398   16.6792  -13.0355 C   0  0  0  0  0  0  0  0  0  0  0  0
   13.7973   16.4080  -12.0468 C   0  0  0  0  0  0  0  0  0  0  0  0
   12.6772   15.6469  -12.3561 C   0  0  0  0  0  0  0  0  0  0  0  0
   12.5051   15.1571  -13.6531 C   0  0  0  0  0  0  0  0  0  0  0  0
  3  6  1  0  0  0
  5  2  2  0  0  0
  5  4  1  0  0  0
  6  7  2  0  0  0
  7  9  1  0  0  0
  8 14  1  0  0  0
  8  1  2  0  0  0
 16 14  1  0  0  0
 16 17  1  0  0  0
 17 15  1  0  0  0
 18 15  1  0  0  0
 18 19  1  0  0  0
 19 20  1  0  0  0
 20 14  1  0  0  0
 21 15  1  0  0  0
 10  3  1  0  0  0
 10 22  1  0  0  0
 23 24  2  0  0  0
 25 26  2  0  0  0
 27 22  2  0  0  0
  5  1  1  0  0  0
  6  2  1  0  0  0
  7  8  1  0  0  0
  9 10  2  0  0  0
 22 23  1  0  0  0
 24 25  1  0  0  0
 26 27  1  0  0  0
  3 11  1  0  0  0
  4 12  1  0  0  0
  4 13  1  0  0  0
M  END
> <minimizedAffinity>
-8.95814

$$$$
CHEMBL2314501


 27 30  0  0  0  0  0  0  0  0999 V2000
   14.7823   14.8660  -18.7854 N   0  0  0  0  0  0  0  0  0  0  0  0
   12.8009   13.6447  -18.2601 N   0  0  0  0  0  0  0  0  0  0  0  0
   12.0899   13.8811  -15.9993 N   0  0  0  0  0  0  0  0  0  0  0  0
   13.7106   13.5852  -20.3732 N   0  0  0  0  0  0  0  0  0  0  0  0
   13.7593   14.0540  -19.0919 C   0  0  0  0  0  0  0  0  0  0  0  0
   12.9449   14.1530  -17.0334 C   0  0  0  0  0  0  0  0  0  0  0  0
   13.9446   15.0046  -16.5852 C   0  0  0  0  0  0  0  0  0  0  0  0
   14.9486   15.3701  -17.5234 C   0  0  0  0  0  0  0  0  0  0  0  0
   13.6165   15.2502  -15.2195 C   0  0  0  0  0  0  0  0  0  0  0  0
   12.4773   14.5417  -14.8558 C   0  0  0  0  0  0  0  0  0  0  0  0
   11.2917   13.2728  -16.0984 H   0  0  0  0  0  0  0  0  0  0  0  0
   14.4868   13.8065  -20.9719 H   0  0  0  0  0  0  0  0  0  0  0  0
   13.0161   12.8926  -20.5907 H   0  0  0  0  0  0  0  0  0  0  0  0
   16.0807   16.1416  -17.2879 N   0  0  0  0  0  0  0  0  0  0  0  0
   17.5893   18.6062  -18.8553 N   0  0  0  0  0  0  0  0  0  0  0  0
   17.1707   16.1278  -18.2779 C   0  0  0  0  0  0  0  0  0  0  0  0
   17.0355   17.2996  -19.2764 C   0  0  0  0  0  0  0  0  0  0  0  0
   17.3094   19.0403  -17.4838 C   0  0  0  0  0  0  0  0  0  0  0  0
   16.0315   18.5471  -16.7990 C   0  0  0  0  0  0  0  0  0  0  0  0
   16.2112   17.1368  -16.2427 C   0  0  0  0  0  0  0  0  0  0  0  0
   17.2406   19.6374  -19.8333 C   0  0  0  0  0  0  0  0  0  0  0  0
   11.7842   14.4732  -13.5582 C   0  0  0  0  0  0  0  0  0  0  0  0
   10.5092   13.9085  -13.4139 C   0  0  0  0  0  0  0  0  0  0  0  0
    9.8795   13.8669  -12.1625 C   0  0  0  0  0  0  0  0  0  0  0  0
   10.5134   14.3863  -11.0364 C   0  0  0  0  0  0  0  0  0  0  0  0
   11.7791   14.9457  -11.1577 C   0  0  0  0  0  0  0  0  0  0  0  0
   12.4053   14.9865  -12.4058 C   0  0  0  0  0  0  0  0  0  0  0  0
  3  6  1  0  0  0
  5  2  2  0  0  0
  5  4  1  0  0  0
  6  7  2  0  0  0
  7  9  1  0  0  0
  8 14  1  0  0  0
  8  1  2  0  0  0
 16 14  1  0  0  0
 16 17  1  0  0  0
 17 15  1  0  0  0
 18 15  1  0  0  0
 18 19  1  0  0  0
 19 20  1  0  0  0
 20 14  1  0  0  0
 21 15  1  0  0  0
 10  3  1  0  0  0
 10 22  1  0  0  0
 23 24  2  0  0  0
 25 26  2  0  0  0
 27 22  2  0  0  0
  5  1  1  0  0  0
  6  2  1  0  0  0
  7  8  1  0  0  0
  9 10  2  0  0  0
 22 23  1  0  0  0
 24 25  1  0  0  0
 26 27  1  0  0  0
  3 11  1  0  0  0
  4 12  1  0  0  0
  4 13  1  0  0  0
M  END
> <minimizedAffinity>
-8.86898

$$$$
CHEMBL2314501


 27 30  0  0  0  0  0  0  0  0999 V2000
   10.1298   14.0858  -13.7791 N   0  0  0  0  0  0  0  0  0  0  0  0
   12.0910   14.9932  -12.7675 N   0  0  0  0  0  0  0  0  0  0  0  0
   13.7455   15.7003  -14.3281 N   0  0  0  0  0  0  0  0  0  0  0  0
   10.3385   14.2257  -11.4885 N   0  0  0  0  0  0  0  0  0  0  0  0
   10.8733   14.4518  -12.7241 C   0  0  0  0  0  0  0  0  0  0  0  0
   12.5240   15.1646  -14.0193 C   0  0  0  0  0  0  0  0  0  0  0  0
   11.8597   14.8399  -15.1935 C   0  0  0  0  0  0  0  0  0  0  0  0
   10.5788   14.2364  -15.0637 C   0  0  0  0  0  0  0  0  0  0  0  0
   12.7517   15.2438  -16.2299 C   0  0  0  0  0  0  0  0  0  0  0  0
   13.9239   15.7616  -15.6913 C   0  0  0  0  0  0  0  0  0  0  0  0
   14.4023   15.9999  -13.6240 H   0  0  0  0  0  0  0  0  0  0  0  0
    9.4691   13.7231  -11.4505 H   0  0  0  0  0  0  0  0  0  0  0  0
   10.9236   14.3925  -10.6890 H   0  0  0  0  0  0  0  0  0  0  0  0
    9.7655   13.7584  -16.0847 N   0  0  0  0  0  0  0  0  0  0  0  0
   10.2040   13.0035  -19.2540 N   0  0  0  0  0  0  0  0  0  0  0  0
    9.5951   14.5724  -17.2999 C   0  0  0  0  0  0  0  0  0  0  0  0
   10.5928   14.1497  -18.4018 C   0  0  0  0  0  0  0  0  0  0  0  0
    9.6269   11.8360  -18.5818 C   0  0  0  0  0  0  0  0  0  0  0  0
   10.0192   11.5511  -17.1291 C   0  0  0  0  0  0  0  0  0  0  0  0
    9.2195   12.4183  -16.1601 C   0  0  0  0  0  0  0  0  0  0  0  0
   11.3146   12.6312  -20.1312 C   0  0  0  0  0  0  0  0  0  0  0  0
   15.1232   16.2819  -16.3693 C   0  0  0  0  0  0  0  0  0  0  0  0
   15.8096   17.4186  -15.9196 C   0  0  0  0  0  0  0  0  0  0  0  0
   16.9446   17.8865  -16.5954 C   0  0  0  0  0  0  0  0  0  0  0  0
   17.4129   17.2261  -17.7287 C   0  0  0  0  0  0  0  0  0  0  0  0
   16.7497   16.0950  -18.1874 C   0  0  0  0  0  0  0  0  0  0  0  0
   15.6183   15.6300  -17.5126 C   0  0  0  0  0  0  0  0  0  0  0  0
  3  6  1  0  0  0
  5  2  2  0  0  0
  5  4  1  0  0  0
  6  7  2  0  0  0
  7  9  1  0  0  0
  8 14  1  0  0  0
  8  1  2  0  0  0
 16 14  1  0  0  0
 16 17  1  0  0  0
 17 15  1  0  0  0
 18 15  1  0  0  0
 18 19  1  0  0  0
 19 20  1  0  0  0
 20 14  1  0  0  0
 21 15  1  0  0  0
 10  3  1  0  0  0
 10 22  1  0  0  0
 23 24  2  0  0  0
 25 26  2  0  0  0
 27 22  2  0  0  0
  5  1  1  0  0  0
  6  2  1  0  0  0
  7  8  1  0  0  0
  9 10  2  0  0  0
 22 23  1  0  0  0
 24 25  1  0  0  0
 26 27  1  0  0  0
  3 11  1  0  0  0
  4 12  1  0  0  0
  4 13  1  0  0  0
M  END
> <minimizedAffinity>
-8.69622

$$$$
CHEMBL2314501


 27 30  0  0  0  0  0  0  0  0999 V2000
   12.2659   14.5391  -13.2764 N   0  0  0  0  0  0  0  0  0  0  0  0
   13.7783   16.2991  -12.7211 N   0  0  0  0  0  0  0  0  0  0  0  0
   15.1607   16.9937  -14.5319 N   0  0  0  0  0  0  0  0  0  0  0  0
   12.3336   15.4324  -11.1533 N   0  0  0  0  0  0  0  0  0  0  0  0
   12.8078   15.4313  -12.4336 C   0  0  0  0  0  0  0  0  0  0  0  0
   14.1751   16.2109  -13.9934 C   0  0  0  0  0  0  0  0  0  0  0  0
   13.6986   15.3451  -14.9675 C   0  0  0  0  0  0  0  0  0  0  0  0
   12.6858   14.4275  -14.5747 C   0  0  0  0  0  0  0  0  0  0  0  0
   14.4435   15.6803  -16.1362 C   0  0  0  0  0  0  0  0  0  0  0  0
   15.3579   16.6900  -15.8597 C   0  0  0  0  0  0  0  0  0  0  0  0
   15.6554   17.6910  -13.9971 H   0  0  0  0  0  0  0  0  0  0  0  0
   11.6788   14.7111  -10.9065 H   0  0  0  0  0  0  0  0  0  0  0  0
   12.8013   16.0165  -10.4830 H   0  0  0  0  0  0  0  0  0  0  0  0
   12.1141   13.4229  -15.3468 N   0  0  0  0  0  0  0  0  0  0  0  0
    9.3843   13.1419  -17.1567 N   0  0  0  0  0  0  0  0  0  0  0  0
   10.7724   12.9293  -14.9936 C   0  0  0  0  0  0  0  0  0  0  0  0
    9.6762   13.6604  -15.8012 C   0  0  0  0  0  0  0  0  0  0  0  0
   10.5309   12.8005  -18.0031 C   0  0  0  0  0  0  0  0  0  0  0  0
   11.8554   13.5377  -17.7855 C   0  0  0  0  0  0  0  0  0  0  0  0
   12.6322   12.9446  -16.6127 C   0  0  0  0  0  0  0  0  0  0  0  0
    8.4482   14.0327  -17.8435 C   0  0  0  0  0  0  0  0  0  0  0  0
   16.3411   17.3391  -16.7434 C   0  0  0  0  0  0  0  0  0  0  0  0
   16.6414   18.7060  -16.6611 C   0  0  0  0  0  0  0  0  0  0  0  0
   17.5796   19.2884  -17.5240 C   0  0  0  0  0  0  0  0  0  0  0  0
   18.2335   18.5154  -18.4803 C   0  0  0  0  0  0  0  0  0  0  0  0
   17.9535   17.1581  -18.5746 C   0  0  0  0  0  0  0  0  0  0  0  0
   17.0179   16.5791  -17.7138 C   0  0  0  0  0  0  0  0  0  0  0  0
  3  6  1  0  0  0
  5  2  2  0  0  0
  5  4  1  0  0  0
  6  7  2  0  0  0
  7  9  1  0  0  0
  8 14  1  0  0  0
  8  1  2  0  0  0
 16 14  1  0  0  0
 16 17  1  0  0  0
 17 15  1  0  0  0
 18 15  1  0  0  0
 18 19  1  0  0  0
 19 20  1  0  0  0
 20 14  1  0  0  0
 21 15  1  0  0  0
 10  3  1  0  0  0
 10 22  1  0  0  0
 23 24  2  0  0  0
 25 26  2  0  0  0
 27 22  2  0  0  0
  5  1  1  0  0  0
  6  2  1  0  0  0
  7  8  1  0  0  0
  9 10  2  0  0  0
 22 23  1  0  0  0
 24 25  1  0  0  0
 26 27  1  0  0  0
  3 11  1  0  0  0
  4 12  1  0  0  0
  4 13  1  0  0  0
M  END
> <minimizedAffinity>
-8.45109

$$$$
CHEMBL2314501


 27 30  0  0  0  0  0  0  0  0999 V2000
   11.7970   12.4853  -20.1342 N   0  0  0  0  0  0  0  0  0  0  0  0
   13.9045   13.5950  -20.2769 N   0  0  0  0  0  0  0  0  0  0  0  0
   14.5047   14.7884  -18.3050 N   0  0  0  0  0  0  0  0  0  0  0  0
   13.0793   12.3757  -22.0456 N   0  0  0  0  0  0  0  0  0  0  0  0
   12.9278   12.8315  -20.7677 C   0  0  0  0  0  0  0  0  0  0  0  0
   13.6550   13.9937  -19.0268 C   0  0  0  0  0  0  0  0  0  0  0  0
   12.5376   13.7050  -18.2565 C   0  0  0  0  0  0  0  0  0  0  0  0
   11.5249   12.9114  -18.8618 C   0  0  0  0  0  0  0  0  0  0  0  0
   12.7861   14.3551  -17.0120 C   0  0  0  0  0  0  0  0  0  0  0  0
   13.9966   15.0372  -17.0503 C   0  0  0  0  0  0  0  0  0  0  0  0
   15.3791   15.1278  -18.6753 H   0  0  0  0  0  0  0  0  0  0  0  0
   12.3004   11.8896  -22.4541 H   0  0  0  0  0  0  0  0  0  0  0  0
   13.8659   12.7134  -22.5714 H   0  0  0  0  0  0  0  0  0  0  0  0
   10.2937   12.5603  -18.3203 N   0  0  0  0  0  0  0  0  0  0  0  0
    8.9579   12.6466  -15.3178 N   0  0  0  0  0  0  0  0  0  0  0  0
   10.2472   11.5410  -17.2585 C   0  0  0  0  0  0  0  0  0  0  0  0
   10.2594   12.1915  -15.8566 C   0  0  0  0  0  0  0  0  0  0  0  0
    8.0717   13.3708  -16.2332 C   0  0  0  0  0  0  0  0  0  0  0  0
    8.6909   14.1677  -17.3851 C   0  0  0  0  0  0  0  0  0  0  0  0
    9.0463   13.2581  -18.5585 C   0  0  0  0  0  0  0  0  0  0  0  0
    9.1613   13.3778  -14.0666 C   0  0  0  0  0  0  0  0  0  0  0  0
   14.6505   15.8557  -16.0153 C   0  0  0  0  0  0  0  0  0  0  0  0
   15.6860   16.7543  -16.3079 C   0  0  0  0  0  0  0  0  0  0  0  0
   16.2874   17.5120  -15.2939 C   0  0  0  0  0  0  0  0  0  0  0  0
   15.8633   17.3858  -13.9733 C   0  0  0  0  0  0  0  0  0  0  0  0
   14.8353   16.5045  -13.6635 C   0  0  0  0  0  0  0  0  0  0  0  0
   14.2370   15.7498  -14.6755 C   0  0  0  0  0  0  0  0  0  0  0  0
  3  6  1  0  0  0
  5  2  2  0  0  0
  5  4  1  0  0  0
  6  7  2  0  0  0
  7  9  1  0  0  0
  8 14  1  0  0  0
  8  1  2  0  0  0
 16 14  1  0  0  0
 16 17  1  0  0  0
 17 15  1  0  0  0
 18 15  1  0  0  0
 18 19  1  0  0  0
 19 20  1  0  0  0
 20 14  1  0  0  0
 21 15  1  0  0  0
 10  3  1  0  0  0
 10 22  1  0  0  0
 23 24  2  0  0  0
 25 26  2  0  0  0
 27 22  2  0  0  0
  5  1  1  0  0  0
  6  2  1  0  0  0
  7  8  1  0  0  0
  9 10  2  0  0  0
 22 23  1  0  0  0
 24 25  1  0  0  0
 26 27  1  0  0  0
  3 11  1  0  0  0
  4 12  1  0  0  0
  4 13  1  0  0  0
M  END
> <minimizedAffinity>
-8.41894

$$$$
CHEMBL3393342


 25 28  0  0  0  0  0  0  0  0999 V2000
   13.5147   14.1028  -17.3031 C   0  0  0  0  0  0  0  0  0  0  0  0
   14.1437   15.1578  -16.5579 C   0  0  0  0  0  0  0  0  0  0  0  0
   15.0787   15.7329  -17.4054 C   0  0  0  0  0  0  0  0  0  0  0  0
   15.8480   17.0745  -15.8243 C   0  0  0  0  0  0  0  0  0  0  0  0
   14.0630   15.6872  -15.2498 C   0  0  0  0  0  0  0  0  0  0  0  0
   14.0304   14.1433  -18.5871 C   0  0  0  0  0  0  0  0  0  0  0  0
   15.9568   16.7006  -17.1089 N   0  0  0  0  0  0  0  0  0  0  0  0
   14.9721   16.6345  -14.9006 N   0  0  0  0  0  0  0  0  0  0  0  0
   14.9692   15.1422  -18.6330 N   0  0  0  0  0  0  0  0  0  0  0  0
   15.5377   15.3953  -19.4280 H   0  0  0  0  0  0  0  0  0  0  0  0
   13.4281   15.3959  -12.9204 C   0  0  0  0  0  0  0  0  0  0  0  0
   12.1747   15.3830  -12.0254 C   0  0  0  0  0  0  0  0  0  0  0  0
   11.1159   14.4190  -12.5663 C   0  0  0  0  0  0  0  0  0  0  0  0
   10.7191   14.7391  -14.0079 C   0  0  0  0  0  0  0  0  0  0  0  0
   11.7202   15.6315  -14.7405 C   0  0  0  0  0  0  0  0  0  0  0  0
   12.5388   15.0329  -10.5826 C   0  0  0  0  0  0  0  0  0  0  0  0
   13.0827   15.3024  -14.3379 N   0  0  0  0  0  0  0  0  0  0  0  0
   10.3829   12.0535  -16.9795 C   0  0  0  0  0  0  0  0  0  0  0  0
   11.2793   13.0567  -17.3582 C   0  0  0  0  0  0  0  0  0  0  0  0
   12.5880   13.0747  -16.8548 C   0  0  0  0  0  0  0  0  0  0  0  0
   12.9773   12.0946  -15.9353 C   0  0  0  0  0  0  0  0  0  0  0  0
   12.0784   11.0989  -15.5425 C   0  0  0  0  0  0  0  0  0  0  0  0
   10.7853   11.0736  -16.0686 C   0  0  0  0  0  0  0  0  0  0  0  0
    9.0695   12.0152  -17.5542 C   0  0  0  0  0  0  0  0  0  0  0  0
    8.0011   11.9956  -18.0045 N   0  0  0  0  0  0  0  0  0  0  0  0
 18 24  1  0  0  0
 19 20  2  0  0  0
 20  1  1  0  0  0
 21 22  2  0  0  0
 23 18  2  0  0  0
  1  2  1  0  0  0
  2  3  2  0  0  0
  3  9  1  0  0  0
  4  7  2  0  0  0
  5  8  2  0  0  0
  5 17  1  0  0  0
 11 17  1  0  0  0
 11 12  1  0  0  0
 12 13  1  0  0  0
 12 16  1  0  0  0
 13 14  1  0  0  0
 14 15  1  0  0  0
 15 17  1  0  0  0
  9  6  1  0  0  0
 18 19  1  0  0  0
 20 21  1  0  0  0
 22 23  1  0  0  0
  3  7  1  0  0  0
  4  8  1  0  0  0
  5  2  1  0  0  0
  6  1  2  0  0  0
 24 25  3  0  0  0
  9 10  1  0  0  0
M  END
> <minimizedAffinity>
-8.88368

$$$$
CHEMBL3393342


 25 28  0  0  0  0  0  0  0  0999 V2000
   13.3922   15.4537  -14.2050 C   0  0  0  0  0  0  0  0  0  0  0  0
   13.8052   15.1321  -15.5428 C   0  0  0  0  0  0  0  0  0  0  0  0
   14.8349   16.0066  -15.8563 C   0  0  0  0  0  0  0  0  0  0  0  0
   14.9702   15.2737  -17.9386 C   0  0  0  0  0  0  0  0  0  0  0  0
   13.4158   14.2230  -16.5527 C   0  0  0  0  0  0  0  0  0  0  0  0
   14.2425   16.4418  -13.7392 C   0  0  0  0  0  0  0  0  0  0  0  0
   15.4695   16.1267  -17.0303 N   0  0  0  0  0  0  0  0  0  0  0  0
   14.0038   14.3507  -17.7708 N   0  0  0  0  0  0  0  0  0  0  0  0
   15.1151   16.7575  -14.7492 N   0  0  0  0  0  0  0  0  0  0  0  0
   15.8366   17.4632  -14.7202 H   0  0  0  0  0  0  0  0  0  0  0  0
   11.2954   13.2064  -17.1729 C   0  0  0  0  0  0  0  0  0  0  0  0
   10.5902   11.8372  -17.1682 C   0  0  0  0  0  0  0  0  0  0  0  0
   10.6382   11.1925  -15.7807 C   0  0  0  0  0  0  0  0  0  0  0  0
   12.0672   11.0404  -15.2583 C   0  0  0  0  0  0  0  0  0  0  0  0
   13.0870   11.9163  -15.9850 C   0  0  0  0  0  0  0  0  0  0  0  0
    9.1471   11.9656  -17.6557 C   0  0  0  0  0  0  0  0  0  0  0  0
   12.4938   13.2016  -16.3354 N   0  0  0  0  0  0  0  0  0  0  0  0
   10.0190   13.9997  -13.4176 C   0  0  0  0  0  0  0  0  0  0  0  0
   11.1113   14.5130  -14.1225 C   0  0  0  0  0  0  0  0  0  0  0  0
   12.2507   14.9691  -13.4442 C   0  0  0  0  0  0  0  0  0  0  0  0
   12.2675   14.9402  -12.0454 C   0  0  0  0  0  0  0  0  0  0  0  0
   11.1705   14.4419  -11.3369 C   0  0  0  0  0  0  0  0  0  0  0  0
   10.0505   13.9657  -12.0213 C   0  0  0  0  0  0  0  0  0  0  0  0
    8.8894   13.4789  -14.1312 C   0  0  0  0  0  0  0  0  0  0  0  0
    7.9642   13.0697  -14.6983 N   0  0  0  0  0  0  0  0  0  0  0  0
 18 24  1  0  0  0
 19 20  2  0  0  0
 20  1  1  0  0  0
 21 22  2  0  0  0
 23 18  2  0  0  0
  1  2  1  0  0  0
  2  3  2  0  0  0
  3  9  1  0  0  0
  4  7  2  0  0  0
  5  8  2  0  0  0
  5 17  1  0  0  0
 11 17  1  0  0  0
 11 12  1  0  0  0
 12 13  1  0  0  0
 12 16  1  0  0  0
 13 14  1  0  0  0
 14 15  1  0  0  0
 15 17  1  0  0  0
  9  6  1  0  0  0
 18 19  1  0  0  0
 20 21  1  0  0  0
 22 23  1  0  0  0
  3  7  1  0  0  0
  4  8  1  0  0  0
  5  2  1  0  0  0
  6  1  2  0  0  0
 24 25  3  0  0  0
  9 10  1  0  0  0
M  END
> <minimizedAffinity>
-8.68639

$$$$
CHEMBL3393342


 25 28  0  0  0  0  0  0  0  0999 V2000
   12.4879   14.2514  -19.8579 C   0  0  0  0  0  0  0  0  0  0  0  0
   13.4301   14.6481  -18.8486 C   0  0  0  0  0  0  0  0  0  0  0  0
   14.4342   15.3465  -19.5022 C   0  0  0  0  0  0  0  0  0  0  0  0
   15.6419   15.5498  -17.6606 C   0  0  0  0  0  0  0  0  0  0  0  0
   13.5805   14.4783  -17.4534 C   0  0  0  0  0  0  0  0  0  0  0  0
   12.9145   14.7989  -21.0556 C   0  0  0  0  0  0  0  0  0  0  0  0
   15.5632   15.8339  -18.9703 N   0  0  0  0  0  0  0  0  0  0  0  0
   14.7369   14.9161  -16.8905 N   0  0  0  0  0  0  0  0  0  0  0  0
   14.0893   15.4661  -20.8193 N   0  0  0  0  0  0  0  0  0  0  0  0
   14.6558   15.9448  -21.5044 H   0  0  0  0  0  0  0  0  0  0  0  0
   12.6219   12.4681  -16.4764 C   0  0  0  0  0  0  0  0  0  0  0  0
   11.7970   12.0201  -15.2554 C   0  0  0  0  0  0  0  0  0  0  0  0
   10.5194   12.8512  -15.1131 C   0  0  0  0  0  0  0  0  0  0  0  0
   10.8069   14.3502  -15.0215 C   0  0  0  0  0  0  0  0  0  0  0  0
   12.2008   14.7427  -15.5097 C   0  0  0  0  0  0  0  0  0  0  0  0
   11.4668   10.5298  -15.3377 C   0  0  0  0  0  0  0  0  0  0  0  0
   12.5899   13.9196  -16.6490 N   0  0  0  0  0  0  0  0  0  0  0  0
    9.1554   12.8703  -18.8092 C   0  0  0  0  0  0  0  0  0  0  0  0
   10.2891   13.6837  -18.8897 C   0  0  0  0  0  0  0  0  0  0  0  0
   11.3412   13.3614  -19.7589 C   0  0  0  0  0  0  0  0  0  0  0  0
   11.2607   12.1905  -20.5206 C   0  0  0  0  0  0  0  0  0  0  0  0
   10.1351   11.3665  -20.4309 C   0  0  0  0  0  0  0  0  0  0  0  0
    9.0806   11.7088  -19.5820 C   0  0  0  0  0  0  0  0  0  0  0  0
    8.0623   13.2505  -17.9624 C   0  0  0  0  0  0  0  0  0  0  0  0
    7.1683   13.5424  -17.2839 N   0  0  0  0  0  0  0  0  0  0  0  0
 18 24  1  0  0  0
 19 20  2  0  0  0
 20  1  1  0  0  0
 21 22  2  0  0  0
 23 18  2  0  0  0
  1  2  1  0  0  0
  2  3  2  0  0  0
  3  9  1  0  0  0
  4  7  2  0  0  0
  5  8  2  0  0  0
  5 17  1  0  0  0
 11 17  1  0  0  0
 11 12  1  0  0  0
 12 13  1  0  0  0
 12 16  1  0  0  0
 13 14  1  0  0  0
 14 15  1  0  0  0
 15 17  1  0  0  0
  9  6  1  0  0  0
 18 19  1  0  0  0
 20 21  1  0  0  0
 22 23  1  0  0  0
  3  7  1  0  0  0
  4  8  1  0  0  0
  5  2  1  0  0  0
  6  1  2  0  0  0
 24 25  3  0  0  0
  9 10  1  0  0  0
M  END
> <minimizedAffinity>
-8.18735

$$$$
CHEMBL3393342


 25 28  0  0  0  0  0  0  0  0999 V2000
   10.8395   13.7057  -13.8089 C   0  0  0  0  0  0  0  0  0  0  0  0
   11.9341   14.6307  -13.7100 C   0  0  0  0  0  0  0  0  0  0  0  0
   11.9489   15.0821  -12.3988 C   0  0  0  0  0  0  0  0  0  0  0  0
   13.5782   16.5234  -12.7983 C   0  0  0  0  0  0  0  0  0  0  0  0
   12.9077   15.1742  -14.5789 C   0  0  0  0  0  0  0  0  0  0  0  0
   10.2993   13.5719  -12.5414 C   0  0  0  0  0  0  0  0  0  0  0  0
   12.7483   16.0192  -11.8714 N   0  0  0  0  0  0  0  0  0  0  0  0
   13.7011   16.1627  -14.0901 N   0  0  0  0  0  0  0  0  0  0  0  0
   10.9895   14.4056  -11.6989 N   0  0  0  0  0  0  0  0  0  0  0  0
   10.8091   14.5489  -10.7159 H   0  0  0  0  0  0  0  0  0  0  0  0
   11.9489   14.7919  -16.7809 C   0  0  0  0  0  0  0  0  0  0  0  0
   12.3732   14.6920  -18.2582 C   0  0  0  0  0  0  0  0  0  0  0  0
   13.5147   13.6889  -18.4415 C   0  0  0  0  0  0  0  0  0  0  0  0
   14.7296   14.0244  -17.5758 C   0  0  0  0  0  0  0  0  0  0  0  0
   14.4234   14.9853  -16.4277 C   0  0  0  0  0  0  0  0  0  0  0  0
   11.1824   14.3248  -19.1436 C   0  0  0  0  0  0  0  0  0  0  0  0
   13.0985   14.7166  -15.8807 N   0  0  0  0  0  0  0  0  0  0  0  0
    8.5667   13.0396  -16.7250 C   0  0  0  0  0  0  0  0  0  0  0  0
    9.1112   13.6056  -15.5689 C   0  0  0  0  0  0  0  0  0  0  0  0
   10.2667   13.0675  -14.9842 C   0  0  0  0  0  0  0  0  0  0  0  0
   10.8499   11.9291  -15.5514 C   0  0  0  0  0  0  0  0  0  0  0  0
   10.2988   11.3514  -16.6987 C   0  0  0  0  0  0  0  0  0  0  0  0
    9.1631   11.9092  -17.2892 C   0  0  0  0  0  0  0  0  0  0  0  0
    7.4224   13.6424  -17.3445 C   0  0  0  0  0  0  0  0  0  0  0  0
    6.4871   14.1276  -17.8288 N   0  0  0  0  0  0  0  0  0  0  0  0
 18 24  1  0  0  0
 19 20  2  0  0  0
 20  1  1  0  0  0
 21 22  2  0  0  0
 23 18  2  0  0  0
  1  2  1  0  0  0
  2  3  2  0  0  0
  3  9  1  0  0  0
  4  7  2  0  0  0
  5  8  2  0  0  0
  5 17  1  0  0  0
 11 17  1  0  0  0
 11 12  1  0  0  0
 12 13  1  0  0  0
 12 16  1  0  0  0
 13 14  1  0  0  0
 14 15  1  0  0  0
 15 17  1  0  0  0
  9  6  1  0  0  0
 18 19  1  0  0  0
 20 21  1  0  0  0
 22 23  1  0  0  0
  3  7  1  0  0  0
  4  8  1  0  0  0
  5  2  1  0  0  0
  6  1  2  0  0  0
 24 25  3  0  0  0
  9 10  1  0  0  0
M  END
> <minimizedAffinity>
-7.74162

$$$$
CHEMBL3393342


 25 28  0  0  0  0  0  0  0  0999 V2000
   13.6105   15.6687  -15.0482 C   0  0  0  0  0  0  0  0  0  0  0  0
   13.1215   15.4563  -13.7142 C   0  0  0  0  0  0  0  0  0  0  0  0
   13.9176   16.2243  -12.8778 C   0  0  0  0  0  0  0  0  0  0  0  0
   12.9434   15.4428  -11.0525 C   0  0  0  0  0  0  0  0  0  0  0  0
   12.1152   14.6802  -13.0954 C   0  0  0  0  0  0  0  0  0  0  0  0
   14.6161   16.6169  -14.9707 C   0  0  0  0  0  0  0  0  0  0  0  0
   13.8784   16.2738  -11.5394 N   0  0  0  0  0  0  0  0  0  0  0  0
   12.0801   14.6684  -11.7373 N   0  0  0  0  0  0  0  0  0  0  0  0
   14.7819   16.9484  -13.6502 N   0  0  0  0  0  0  0  0  0  0  0  0
   15.4609   17.5943  -13.2743 H   0  0  0  0  0  0  0  0  0  0  0  0
   11.6300   12.8108  -14.5733 C   0  0  0  0  0  0  0  0  0  0  0  0
   10.4736   11.8659  -14.9501 C   0  0  0  0  0  0  0  0  0  0  0  0
    9.2134   12.6512  -15.3220 C   0  0  0  0  0  0  0  0  0  0  0  0
    8.7664   13.5971  -14.2068 C   0  0  0  0  0  0  0  0  0  0  0  0
    9.8525   13.8893  -13.1723 C   0  0  0  0  0  0  0  0  0  0  0  0
   10.8831   10.9296  -16.0869 C   0  0  0  0  0  0  0  0  0  0  0  0
   11.1584   13.9694  -13.8164 N   0  0  0  0  0  0  0  0  0  0  0  0
   11.5461   14.2877  -17.8667 C   0  0  0  0  0  0  0  0  0  0  0  0
   11.9096   14.8942  -16.6611 C   0  0  0  0  0  0  0  0  0  0  0  0
   13.2572   14.9896  -16.2855 C   0  0  0  0  0  0  0  0  0  0  0  0
   14.2366   14.4345  -17.1164 C   0  0  0  0  0  0  0  0  0  0  0  0
   13.8753   13.8135  -18.3153 C   0  0  0  0  0  0  0  0  0  0  0  0
   12.5330   13.7459  -18.6940 C   0  0  0  0  0  0  0  0  0  0  0  0
   10.1685   14.2568  -18.2638 C   0  0  0  0  0  0  0  0  0  0  0  0
    9.0503   14.2212  -18.5691 N   0  0  0  0  0  0  0  0  0  0  0  0
 18 24  1  0  0  0
 19 20  2  0  0  0
 20  1  1  0  0  0
 21 22  2  0  0  0
 23 18  2  0  0  0
  1  2  1  0  0  0
  2  3  2  0  0  0
  3  9  1  0  0  0
  4  7  2  0  0  0
  5  8  2  0  0  0
  5 17  1  0  0  0
 11 17  1  0  0  0
 11 12  1  0  0  0
 12 13  1  0  0  0
 12 16  1  0  0  0
 13 14  1  0  0  0
 14 15  1  0  0  0
 15 17  1  0  0  0
  9  6  1  0  0  0
 18 19  1  0  0  0
 20 21  1  0  0  0
 22 23  1  0  0  0
  3  7  1  0  0  0
  4  8  1  0  0  0
  5  2  1  0  0  0
  6  1  2  0  0  0
 24 25  3  0  0  0
  9 10  1  0  0  0
M  END
> <minimizedAffinity>
-7.68933

$$$$
CHEMBL3393342


 25 28  0  0  0  0  0  0  0  0999 V2000
   13.4296   15.6088  -13.5255 C   0  0  0  0  0  0  0  0  0  0  0  0
   12.2091   14.9648  -13.1264 C   0  0  0  0  0  0  0  0  0  0  0  0
   12.1164   15.1180  -11.7512 C   0  0  0  0  0  0  0  0  0  0  0  0
   10.2948   13.8699  -11.6252 C   0  0  0  0  0  0  0  0  0  0  0  0
   11.1732   14.2366  -13.7547 C   0  0  0  0  0  0  0  0  0  0  0  0
   13.9728   16.1954  -12.3954 C   0  0  0  0  0  0  0  0  0  0  0  0
   11.1824   14.6063  -10.9381 N   0  0  0  0  0  0  0  0  0  0  0  0
   10.2378   13.6616  -12.9546 N   0  0  0  0  0  0  0  0  0  0  0  0
   13.1594   15.8956  -11.3326 N   0  0  0  0  0  0  0  0  0  0  0  0
   13.3082   16.1604  -10.3696 H   0  0  0  0  0  0  0  0  0  0  0  0
   10.5120   12.8669  -15.6523 C   0  0  0  0  0  0  0  0  0  0  0  0
   10.0278   13.0107  -17.1074 C   0  0  0  0  0  0  0  0  0  0  0  0
   10.9669   13.9064  -17.9192 C   0  0  0  0  0  0  0  0  0  0  0  0
   11.1386   15.2902  -17.2918 C   0  0  0  0  0  0  0  0  0  0  0  0
   10.7183   15.3596  -15.8242 C   0  0  0  0  0  0  0  0  0  0  0  0
    9.8788   11.6413  -17.7701 C   0  0  0  0  0  0  0  0  0  0  0  0
   11.0635   14.1197  -15.1384 N   0  0  0  0  0  0  0  0  0  0  0  0
   15.5212   16.7445  -16.4321 C   0  0  0  0  0  0  0  0  0  0  0  0
   14.8294   16.7364  -15.2177 C   0  0  0  0  0  0  0  0  0  0  0  0
   14.1007   15.6075  -14.8164 C   0  0  0  0  0  0  0  0  0  0  0  0
   14.0418   14.4977  -15.6664 C   0  0  0  0  0  0  0  0  0  0  0  0
   14.7199   14.5084  -16.8886 C   0  0  0  0  0  0  0  0  0  0  0  0
   15.4643   15.6268  -17.2685 C   0  0  0  0  0  0  0  0  0  0  0  0
   16.3131   17.8836  -16.7954 C   0  0  0  0  0  0  0  0  0  0  0  0
   16.9497   18.8127  -17.0717 N   0  0  0  0  0  0  0  0  0  0  0  0
 18 24  1  0  0  0
 19 20  2  0  0  0
 20  1  1  0  0  0
 21 22  2  0  0  0
 23 18  2  0  0  0
  1  2  1  0  0  0
  2  3  2  0  0  0
  3  9  1  0  0  0
  4  7  2  0  0  0
  5  8  2  0  0  0
  5 17  1  0  0  0
 11 17  1  0  0  0
 11 12  1  0  0  0
 12 13  1  0  0  0
 12 16  1  0  0  0
 13 14  1  0  0  0
 14 15  1  0  0  0
 15 17  1  0  0  0
  9  6  1  0  0  0
 18 19  1  0  0  0
 20 21  1  0  0  0
 22 23  1  0  0  0
  3  7  1  0  0  0
  4  8  1  0  0  0
  5  2  1  0  0  0
  6  1  2  0  0  0
 24 25  3  0  0  0
  9 10  1  0  0  0
M  END
> <minimizedAffinity>
-7.60500

$$$$
CHEMBL3393342


 25 28  0  0  0  0  0  0  0  0999 V2000
   13.3529   14.8305  -16.7804 C   0  0  0  0  0  0  0  0  0  0  0  0
   12.9589   14.5636  -18.1359 C   0  0  0  0  0  0  0  0  0  0  0  0
   14.0203   14.9562  -18.9374 C   0  0  0  0  0  0  0  0  0  0  0  0
   12.9049   14.5475  -20.8030 C   0  0  0  0  0  0  0  0  0  0  0  0
   11.8152   14.0625  -18.7985 C   0  0  0  0  0  0  0  0  0  0  0  0
   14.6594   15.2868  -16.8150 C   0  0  0  0  0  0  0  0  0  0  0  0
   14.0664   14.9668  -20.2765 N   0  0  0  0  0  0  0  0  0  0  0  0
   11.8091   14.1060  -20.1564 N   0  0  0  0  0  0  0  0  0  0  0  0
   15.0499   15.3478  -18.1284 N   0  0  0  0  0  0  0  0  0  0  0  0
   15.9419   15.6698  -18.4749 H   0  0  0  0  0  0  0  0  0  0  0  0
    9.4410   14.1733  -18.2838 C   0  0  0  0  0  0  0  0  0  0  0  0
    8.2707   13.2567  -17.8807 C   0  0  0  0  0  0  0  0  0  0  0  0
    8.6258   12.4084  -16.6570 C   0  0  0  0  0  0  0  0  0  0  0  0
    9.8871   11.5719  -16.8742 C   0  0  0  0  0  0  0  0  0  0  0  0
   10.7531   12.0511  -18.0387 C   0  0  0  0  0  0  0  0  0  0  0  0
    7.0030   14.0717  -17.6250 C   0  0  0  0  0  0  0  0  0  0  0  0
   10.7321   13.5070  -18.1211 N   0  0  0  0  0  0  0  0  0  0  0  0
   12.4132   15.1345  -13.1559 C   0  0  0  0  0  0  0  0  0  0  0  0
   13.1570   15.1409  -14.3392 C   0  0  0  0  0  0  0  0  0  0  0  0
   12.5688   14.7684  -15.5564 C   0  0  0  0  0  0  0  0  0  0  0  0
   11.2332   14.3516  -15.5679 C   0  0  0  0  0  0  0  0  0  0  0  0
   10.4910   14.3292  -14.3837 C   0  0  0  0  0  0  0  0  0  0  0  0
   11.0772   14.7265  -13.1803 C   0  0  0  0  0  0  0  0  0  0  0  0
   13.0141   15.5799  -11.9323 C   0  0  0  0  0  0  0  0  0  0  0  0
   13.4998   15.9217  -10.9363 N   0  0  0  0  0  0  0  0  0  0  0  0
 18 24  1  0  0  0
 19 20  2  0  0  0
 20  1  1  0  0  0
 21 22  2  0  0  0
 23 18  2  0  0  0
  1  2  1  0  0  0
  2  3  2  0  0  0
  3  9  1  0  0  0
  4  7  2  0  0  0
  5  8  2  0  0  0
  5 17  1  0  0  0
 11 17  1  0  0  0
 11 12  1  0  0  0
 12 13  1  0  0  0
 12 16  1  0  0  0
 13 14  1  0  0  0
 14 15  1  0  0  0
 15 17  1  0  0  0
  9  6  1  0  0  0
 18 19  1  0  0  0
 20 21  1  0  0  0
 22 23  1  0  0  0
  3  7  1  0  0  0
  4  8  1  0  0  0
  5  2  1  0  0  0
  6  1  2  0  0  0
 24 25  3  0  0  0
  9 10  1  0  0  0
M  END
> <minimizedAffinity>
-7.27091

$$$$
CHEMBL3393342


 25 28  0  0  0  0  0  0  0  0999 V2000
    9.6596   13.5046  -14.9071 C   0  0  0  0  0  0  0  0  0  0  0  0
   10.7049   13.9935  -14.0514 C   0  0  0  0  0  0  0  0  0  0  0  0
   10.1724   14.0451  -12.7720 C   0  0  0  0  0  0  0  0  0  0  0  0
   11.9930   14.9804  -11.9340 C   0  0  0  0  0  0  0  0  0  0  0  0
   12.0399   14.4333  -14.2010 C   0  0  0  0  0  0  0  0  0  0  0  0
    8.5770   13.2004  -14.0999 C   0  0  0  0  0  0  0  0  0  0  0  0
   10.7619   14.5175  -11.6653 N   0  0  0  0  0  0  0  0  0  0  0  0
   12.6499   14.9649  -13.1096 N   0  0  0  0  0  0  0  0  0  0  0  0
    8.9089   13.5254  -12.8094 N   0  0  0  0  0  0  0  0  0  0  0  0
    8.3138   13.4435  -11.9979 H   0  0  0  0  0  0  0  0  0  0  0  0
   13.7241   15.3573  -15.6923 C   0  0  0  0  0  0  0  0  0  0  0  0
   14.7325   14.9076  -16.7662 C   0  0  0  0  0  0  0  0  0  0  0  0
   14.0522   14.0669  -17.8494 C   0  0  0  0  0  0  0  0  0  0  0  0
   13.3315   12.8475  -17.2734 C   0  0  0  0  0  0  0  0  0  0  0  0
   13.0663   12.9393  -15.7713 C   0  0  0  0  0  0  0  0  0  0  0  0
   15.4449   16.1113  -17.3829 C   0  0  0  0  0  0  0  0  0  0  0  0
   12.7463   14.3116  -15.3954 N   0  0  0  0  0  0  0  0  0  0  0  0
    8.7582   12.3193  -18.3560 C   0  0  0  0  0  0  0  0  0  0  0  0
    8.8557   12.4017  -16.9642 C   0  0  0  0  0  0  0  0  0  0  0  0
    9.6146   13.4135  -16.3584 C   0  0  0  0  0  0  0  0  0  0  0  0
   10.3077   14.3212  -17.1667 C   0  0  0  0  0  0  0  0  0  0  0  0
   10.2248   14.2320  -18.5592 C   0  0  0  0  0  0  0  0  0  0  0  0
    9.4459   13.2373  -19.1536 C   0  0  0  0  0  0  0  0  0  0  0  0
    7.9258   11.3171  -18.9555 C   0  0  0  0  0  0  0  0  0  0  0  0
    7.2396   10.5093  -19.4260 N   0  0  0  0  0  0  0  0  0  0  0  0
 18 24  1  0  0  0
 19 20  2  0  0  0
 20  1  1  0  0  0
 21 22  2  0  0  0
 23 18  2  0  0  0
  1  2  1  0  0  0
  2  3  2  0  0  0
  3  9  1  0  0  0
  4  7  2  0  0  0
  5  8  2  0  0  0
  5 17  1  0  0  0
 11 17  1  0  0  0
 11 12  1  0  0  0
 12 13  1  0  0  0
 12 16  1  0  0  0
 13 14  1  0  0  0
 14 15  1  0  0  0
 15 17  1  0  0  0
  9  6  1  0  0  0
 18 19  1  0  0  0
 20 21  1  0  0  0
 22 23  1  0  0  0
  3  7  1  0  0  0
  4  8  1  0  0  0
  5  2  1  0  0  0
  6  1  2  0  0  0
 24 25  3  0  0  0
  9 10  1  0  0  0
M  END
> <minimizedAffinity>
-7.20990

$$$$
CHEMBL3393342


 25 28  0  0  0  0  0  0  0  0999 V2000
   14.5750   15.3932  -16.9677 C   0  0  0  0  0  0  0  0  0  0  0  0
   14.8315   16.0582  -15.7204 C   0  0  0  0  0  0  0  0  0  0  0  0
   15.9952   16.7911  -15.8987 C   0  0  0  0  0  0  0  0  0  0  0  0
   16.0522   17.4222  -13.7798 C   0  0  0  0  0  0  0  0  0  0  0  0
   14.2388   16.1113  -14.4382 C   0  0  0  0  0  0  0  0  0  0  0  0
   15.5382   15.8196  -17.8659 C   0  0  0  0  0  0  0  0  0  0  0  0
   16.6559   17.5034  -14.9760 N   0  0  0  0  0  0  0  0  0  0  0  0
   14.9089   16.7832  -13.4660 N   0  0  0  0  0  0  0  0  0  0  0  0
   16.3839   16.6725  -17.2037 N   0  0  0  0  0  0  0  0  0  0  0  0
   17.2017   17.1241  -17.5867 H   0  0  0  0  0  0  0  0  0  0  0  0
   12.7273   15.2246  -12.7520 C   0  0  0  0  0  0  0  0  0  0  0  0
   11.2216   15.0266  -12.4953 C   0  0  0  0  0  0  0  0  0  0  0  0
   10.5503   14.2981  -13.6622 C   0  0  0  0  0  0  0  0  0  0  0  0
   10.7577   15.0182  -14.9950 C   0  0  0  0  0  0  0  0  0  0  0  0
   11.9039   16.0287  -14.9793 C   0  0  0  0  0  0  0  0  0  0  0  0
   10.9861   14.2789  -11.1830 C   0  0  0  0  0  0  0  0  0  0  0  0
   13.0013   15.5385  -14.1534 N   0  0  0  0  0  0  0  0  0  0  0  0
   12.4402   12.3148  -16.6876 C   0  0  0  0  0  0  0  0  0  0  0  0
   13.4123   13.2841  -16.4252 C   0  0  0  0  0  0  0  0  0  0  0  0
   13.5886   14.3736  -17.2903 C   0  0  0  0  0  0  0  0  0  0  0  0
   12.8030   14.4603  -18.4449 C   0  0  0  0  0  0  0  0  0  0  0  0
   11.8406   13.4842  -18.7183 C   0  0  0  0  0  0  0  0  0  0  0  0
   11.6540   12.4166  -17.8380 C   0  0  0  0  0  0  0  0  0  0  0  0
   12.2313   11.2430  -15.7579 C   0  0  0  0  0  0  0  0  0  0  0  0
   12.0480   10.3696  -15.0174 N   0  0  0  0  0  0  0  0  0  0  0  0
 18 24  1  0  0  0
 19 20  2  0  0  0
 20  1  1  0  0  0
 21 22  2  0  0  0
 23 18  2  0  0  0
  1  2  1  0  0  0
  2  3  2  0  0  0
  3  9  1  0  0  0
  4  7  2  0  0  0
  5  8  2  0  0  0
  5 17  1  0  0  0
 11 17  1  0  0  0
 11 12  1  0  0  0
 12 13  1  0  0  0
 12 16  1  0  0  0
 13 14  1  0  0  0
 14 15  1  0  0  0
 15 17  1  0  0  0
  9  6  1  0  0  0
 18 19  1  0  0  0
 20 21  1  0  0  0
 22 23  1  0  0  0
  3  7  1  0  0  0
  4  8  1  0  0  0
  5  2  1  0  0  0
  6  1  2  0  0  0
 24 25  3  0  0  0
  9 10  1  0  0  0
M  END
> <minimizedAffinity>
-7.08113

$$$$
CHEMBL4468002


 34 38  0  0  0  0  0  0  0  0999 V2000
   11.2999   13.7993  -18.5390 C   0  0  0  0  0  0  0  0  0  0  0  0
   12.3726   14.7136  -18.5015 C   0  0  0  0  0  0  0  0  0  0  0  0
   13.4106   14.6642  -19.4449 C   0  0  0  0  0  0  0  0  0  0  0  0
   13.3815   13.6604  -20.4139 C   0  0  0  0  0  0  0  0  0  0  0  0
   12.3343   12.7395  -20.4573 C   0  0  0  0  0  0  0  0  0  0  0  0
   11.2997   12.8092  -19.5295 C   0  0  0  0  0  0  0  0  0  0  0  0
    9.4017   12.5751  -15.5055 C   0  0  0  0  0  0  0  0  0  0  0  0
    9.7741   12.4871  -16.9831 C   0  0  0  0  0  0  0  0  0  0  0  0
   10.1331   13.8716  -17.5603 C   0  0  0  0  0  0  0  0  0  0  0  0
   10.3334   14.9472  -16.4654 C   0  0  0  0  0  0  0  0  0  0  0  0
   10.5634   13.1717  -14.7081 C   0  0  0  0  0  0  0  0  0  0  0  0
   11.0571   14.4019  -15.3113 N   0  0  0  0  0  0  0  0  0  0  0  0
   12.1690   15.0807  -14.8356 C   0  0  0  0  0  0  0  0  0  0  0  0
   14.1946   16.1631  -15.3556 C   0  0  0  0  0  0  0  0  0  0  0  0
   13.7185   15.9255  -13.2154 C   0  0  0  0  0  0  0  0  0  0  0  0
   12.5071   15.2917  -13.4723 C   0  0  0  0  0  0  0  0  0  0  0  0
   11.9480   15.0126  -12.1852 C   0  0  0  0  0  0  0  0  0  0  0  0
   12.8250   15.4589  -11.2188 C   0  0  0  0  0  0  0  0  0  0  0  0
   13.0624   15.5575  -15.7511 N   0  0  0  0  0  0  0  0  0  0  0  0
   14.6096   16.3811  -14.1039 N   0  0  0  0  0  0  0  0  0  0  0  0
   13.8937   16.0177  -11.8628 N   0  0  0  0  0  0  0  0  0  0  0  0
   14.7038   16.4402  -11.4330 H   0  0  0  0  0  0  0  0  0  0  0  0
   15.5619   15.5699  -18.5384 C   0  0  0  0  0  0  0  0  0  0  0  0
   14.4407   15.6332  -19.3530 N   0  0  0  0  0  0  0  0  0  0  0  0
   16.2903   16.7492  -18.5751 N   0  0  0  0  0  0  0  0  0  0  0  0
   15.8740   14.5953  -17.8610 O   0  0  0  0  0  0  0  0  0  0  0  0
   14.3698   16.4103  -19.9914 H   0  0  0  0  0  0  0  0  0  0  0  0
   16.0009   17.4466  -19.2434 H   0  0  0  0  0  0  0  0  0  0  0  0
   17.4246   17.0613  -17.7848 C   0  0  0  0  0  0  0  0  0  0  0  0
   17.2450   17.7201  -16.5686 C   0  0  0  0  0  0  0  0  0  0  0  0
   19.4971   17.7435  -16.0983 C   0  0  0  0  0  0  0  0  0  0  0  0
   19.7898   17.0832  -17.2774 C   0  0  0  0  0  0  0  0  0  0  0  0
   18.7374   16.7386  -18.1263 C   0  0  0  0  0  0  0  0  0  0  0  0
   18.2440   18.0700  -15.7192 N   0  0  0  0  0  0  0  0  0  0  0  0
  7  8  1  0  0  0
  8  9  1  0  0  0
  9 10  1  0  0  0
  9  1  1  0  0  0
 10 12  1  0  0  0
 11 12  1  0  0  0
 11  7  1  0  0  0
 14 19  2  0  0  0
 15 20  2  0  0  0
 16 17  1  0  0  0
 16 13  2  0  0  0
 18 21  1  0  0  0
  2  3  2  0  0  0
  3 24  1  0  0  0
  4  5  2  0  0  0
  6  1  2  0  0  0
 23 25  1  0  0  0
 30 34  2  0  0  0
 31 32  2  0  0  0
 33 29  2  0  0  0
 12 13  1  0  0  0
 21 15  1  0  0  0
 24 23  1  0  0  0
 25 29  1  0  0  0
 13 19  1  0  0  0
 14 20  1  0  0  0
 15 16  1  0  0  0
 17 18  2  0  0  0
  1  2  1  0  0  0
  3  4  1  0  0  0
  5  6  1  0  0  0
 23 26  2  0  0  0
 29 30  1  0  0  0
 31 34  1  0  0  0
 32 33  1  0  0  0
 21 22  1  0  0  0
 24 27  1  0  0  0
 25 28  1  0  0  0
M  END
> <minimizedAffinity>
-10.46712

$$$$
CHEMBL4468002


 34 38  0  0  0  0  0  0  0  0999 V2000
   10.2254   13.6752  -14.8562 C   0  0  0  0  0  0  0  0  0  0  0  0
   11.1574   14.5246  -15.4870 C   0  0  0  0  0  0  0  0  0  0  0  0
   12.0459   15.3174  -14.7441 C   0  0  0  0  0  0  0  0  0  0  0  0
   11.9683   15.2768  -13.3514 C   0  0  0  0  0  0  0  0  0  0  0  0
   11.0431   14.4517  -12.7111 C   0  0  0  0  0  0  0  0  0  0  0  0
   10.1799   13.6547  -13.4566 C   0  0  0  0  0  0  0  0  0  0  0  0
    7.6932   13.0443  -17.5938 C   0  0  0  0  0  0  0  0  0  0  0  0
    8.0665   13.5216  -16.1928 C   0  0  0  0  0  0  0  0  0  0  0  0
    9.2916   12.7626  -15.6434 C   0  0  0  0  0  0  0  0  0  0  0  0
   10.0286   11.9420  -16.7294 C   0  0  0  0  0  0  0  0  0  0  0  0
    8.8770   13.2359  -18.5442 C   0  0  0  0  0  0  0  0  0  0  0  0
   10.1067   12.6833  -17.9934 N   0  0  0  0  0  0  0  0  0  0  0  0
   11.3384   12.8181  -18.6163 C   0  0  0  0  0  0  0  0  0  0  0  0
   13.5863   13.4929  -18.4237 C   0  0  0  0  0  0  0  0  0  0  0  0
   12.9095   12.8587  -20.4246 C   0  0  0  0  0  0  0  0  0  0  0  0
   11.6195   12.5758  -19.9874 C   0  0  0  0  0  0  0  0  0  0  0  0
   10.9220   12.1127  -21.1476 C   0  0  0  0  0  0  0  0  0  0  0  0
   11.7854   12.1473  -22.2226 C   0  0  0  0  0  0  0  0  0  0  0  0
   12.3838   13.2738  -17.8658 N   0  0  0  0  0  0  0  0  0  0  0  0
   13.9365   13.3219  -19.7022 N   0  0  0  0  0  0  0  0  0  0  0  0
   12.9922   12.5970  -21.7638 N   0  0  0  0  0  0  0  0  0  0  0  0
   13.8335   12.7279  -22.3065 H   0  0  0  0  0  0  0  0  0  0  0  0
   14.2969   15.8275  -15.7150 C   0  0  0  0  0  0  0  0  0  0  0  0
   12.9680   16.1272  -15.4530 N   0  0  0  0  0  0  0  0  0  0  0  0
   14.9598   16.8981  -16.2954 N   0  0  0  0  0  0  0  0  0  0  0  0
   14.8291   14.7511  -15.4615 O   0  0  0  0  0  0  0  0  0  0  0  0
   12.5919   16.9732  -15.8522 H   0  0  0  0  0  0  0  0  0  0  0  0
   14.4022   17.6975  -16.5538 H   0  0  0  0  0  0  0  0  0  0  0  0
   16.3441   16.9692  -16.5910 C   0  0  0  0  0  0  0  0  0  0  0  0
   17.1798   17.7109  -15.7561 C   0  0  0  0  0  0  0  0  0  0  0  0
   19.0620   17.2198  -16.9850 C   0  0  0  0  0  0  0  0  0  0  0  0
   18.3300   16.4515  -17.8717 C   0  0  0  0  0  0  0  0  0  0  0  0
   16.9556   16.3265  -17.6667 C   0  0  0  0  0  0  0  0  0  0  0  0
   18.5189   17.8538  -15.9250 N   0  0  0  0  0  0  0  0  0  0  0  0
  7  8  1  0  0  0
  8  9  1  0  0  0
  9 10  1  0  0  0
  9  1  1  0  0  0
 10 12  1  0  0  0
 11 12  1  0  0  0
 11  7  1  0  0  0
 14 19  2  0  0  0
 15 20  2  0  0  0
 16 17  1  0  0  0
 16 13  2  0  0  0
 18 21  1  0  0  0
  2  3  2  0  0  0
  3 24  1  0  0  0
  4  5  2  0  0  0
  6  1  2  0  0  0
 23 25  1  0  0  0
 30 34  2  0  0  0
 31 32  2  0  0  0
 33 29  2  0  0  0
 12 13  1  0  0  0
 21 15  1  0  0  0
 24 23  1  0  0  0
 25 29  1  0  0  0
 13 19  1  0  0  0
 14 20  1  0  0  0
 15 16  1  0  0  0
 17 18  2  0  0  0
  1  2  1  0  0  0
  3  4  1  0  0  0
  5  6  1  0  0  0
 23 26  2  0  0  0
 29 30  1  0  0  0
 31 34  1  0  0  0
 32 33  1  0  0  0
 21 22  1  0  0  0
 24 27  1  0  0  0
 25 28  1  0  0  0
M  END
> <minimizedAffinity>
-9.65025

$$$$
CHEMBL4468002


 34 38  0  0  0  0  0  0  0  0999 V2000
    9.5335   12.0417  -19.7435 C   0  0  0  0  0  0  0  0  0  0  0  0
   10.1510   13.0527  -18.9789 C   0  0  0  0  0  0  0  0  0  0  0  0
    9.5008   13.6437  -17.8844 C   0  0  0  0  0  0  0  0  0  0  0  0
    8.2020   13.2331  -17.5813 C   0  0  0  0  0  0  0  0  0  0  0  0
    7.5713   12.2432  -18.3356 C   0  0  0  0  0  0  0  0  0  0  0  0
    8.2319   11.6495  -19.4067 C   0  0  0  0  0  0  0  0  0  0  0  0
   10.2915   11.6049  -23.4230 C   0  0  0  0  0  0  0  0  0  0  0  0
    9.4104   11.3809  -22.1969 C   0  0  0  0  0  0  0  0  0  0  0  0
   10.2435   11.3458  -20.8993 C   0  0  0  0  0  0  0  0  0  0  0  0
   11.6944   11.8460  -21.1013 C   0  0  0  0  0  0  0  0  0  0  0  0
   11.0630   12.9184  -23.2796 C   0  0  0  0  0  0  0  0  0  0  0  0
   11.7351   13.0122  -21.9910 N   0  0  0  0  0  0  0  0  0  0  0  0
   12.4171   14.1468  -21.5779 C   0  0  0  0  0  0  0  0  0  0  0  0
   13.1576   16.3147  -22.1231 C   0  0  0  0  0  0  0  0  0  0  0  0
   13.8213   15.4986  -20.1847 C   0  0  0  0  0  0  0  0  0  0  0  0
   13.1333   14.3025  -20.3612 C   0  0  0  0  0  0  0  0  0  0  0  0
   13.3984   13.5383  -19.1810 C   0  0  0  0  0  0  0  0  0  0  0  0
   14.2302   14.2710  -18.3604 C   0  0  0  0  0  0  0  0  0  0  0  0
   12.4562   15.2112  -22.4319 N   0  0  0  0  0  0  0  0  0  0  0  0
   13.8809   16.5409  -21.0222 N   0  0  0  0  0  0  0  0  0  0  0  0
   14.4721   15.4638  -18.9831 N   0  0  0  0  0  0  0  0  0  0  0  0
   15.0411   16.2219  -18.6351 H   0  0  0  0  0  0  0  0  0  0  0  0
   11.1008   14.4200  -16.1216 C   0  0  0  0  0  0  0  0  0  0  0  0
   10.1982   14.6369  -17.1525 N   0  0  0  0  0  0  0  0  0  0  0  0
   11.4858   15.6074  -15.5180 N   0  0  0  0  0  0  0  0  0  0  0  0
   11.5085   13.3150  -15.7766 O   0  0  0  0  0  0  0  0  0  0  0  0
   10.0613   15.5867  -17.4620 H   0  0  0  0  0  0  0  0  0  0  0  0
   11.1701   16.4636  -15.9470 H   0  0  0  0  0  0  0  0  0  0  0  0
   12.3075   15.7392  -14.3707 C   0  0  0  0  0  0  0  0  0  0  0  0
   13.6536   16.0662  -14.5331 C   0  0  0  0  0  0  0  0  0  0  0  0
   14.0652   16.0550  -12.2694 C   0  0  0  0  0  0  0  0  0  0  0  0
   12.7481   15.7381  -11.9921 C   0  0  0  0  0  0  0  0  0  0  0  0
   11.8625   15.5813  -13.0588 C   0  0  0  0  0  0  0  0  0  0  0  0
   14.5422   16.2266  -13.5198 N   0  0  0  0  0  0  0  0  0  0  0  0
  7  8  1  0  0  0
  8  9  1  0  0  0
  9 10  1  0  0  0
  9  1  1  0  0  0
 10 12  1  0  0  0
 11 12  1  0  0  0
 11  7  1  0  0  0
 14 19  2  0  0  0
 15 20  2  0  0  0
 16 17  1  0  0  0
 16 13  2  0  0  0
 18 21  1  0  0  0
  2  3  2  0  0  0
  3 24  1  0  0  0
  4  5  2  0  0  0
  6  1  2  0  0  0
 23 25  1  0  0  0
 30 34  2  0  0  0
 31 32  2  0  0  0
 33 29  2  0  0  0
 12 13  1  0  0  0
 21 15  1  0  0  0
 24 23  1  0  0  0
 25 29  1  0  0  0
 13 19  1  0  0  0
 14 20  1  0  0  0
 15 16  1  0  0  0
 17 18  2  0  0  0
  1  2  1  0  0  0
  3  4  1  0  0  0
  5  6  1  0  0  0
 23 26  2  0  0  0
 29 30  1  0  0  0
 31 34  1  0  0  0
 32 33  1  0  0  0
 21 22  1  0  0  0
 24 27  1  0  0  0
 25 28  1  0  0  0
M  END
> <minimizedAffinity>
-9.21705

$$$$
CHEMBL4468002


 34 38  0  0  0  0  0  0  0  0999 V2000
   13.7599   14.6908  -18.5823 C   0  0  0  0  0  0  0  0  0  0  0  0
   12.5411   14.0042  -18.7585 C   0  0  0  0  0  0  0  0  0  0  0  0
   11.8399   14.0560  -19.9732 C   0  0  0  0  0  0  0  0  0  0  0  0
   12.3582   14.8364  -21.0075 C   0  0  0  0  0  0  0  0  0  0  0  0
   13.5563   15.5328  -20.8456 C   0  0  0  0  0  0  0  0  0  0  0  0
   14.2540   15.4590  -19.6440 C   0  0  0  0  0  0  0  0  0  0  0  0
   14.7943   16.0032  -15.1894 C   0  0  0  0  0  0  0  0  0  0  0  0
   14.8910   15.9931  -16.7127 C   0  0  0  0  0  0  0  0  0  0  0  0
   14.5666   14.6009  -17.2918 C   0  0  0  0  0  0  0  0  0  0  0  0
   13.9299   13.6488  -16.2506 C   0  0  0  0  0  0  0  0  0  0  0  0
   13.3886   15.5864  -14.7519 C   0  0  0  0  0  0  0  0  0  0  0  0
   12.9616   14.3571  -15.4056 N   0  0  0  0  0  0  0  0  0  0  0  0
   11.6897   13.8258  -15.2540 C   0  0  0  0  0  0  0  0  0  0  0  0
    9.8571   12.7632  -16.2825 C   0  0  0  0  0  0  0  0  0  0  0  0
    9.6040   13.3550  -14.1731 C   0  0  0  0  0  0  0  0  0  0  0  0
   10.8905   13.8763  -14.0808 C   0  0  0  0  0  0  0  0  0  0  0  0
   11.0077   14.3534  -12.7370 C   0  0  0  0  0  0  0  0  0  0  0  0
    9.8139   14.1271  -12.0845 C   0  0  0  0  0  0  0  0  0  0  0  0
   11.1134   13.2358  -16.3418 N   0  0  0  0  0  0  0  0  0  0  0  0
    9.0230   12.7905  -15.2384 N   0  0  0  0  0  0  0  0  0  0  0  0
    8.9733   13.5128  -12.9706 N   0  0  0  0  0  0  0  0  0  0  0  0
    8.0259   13.2113  -12.7941 H   0  0  0  0  0  0  0  0  0  0  0  0
   10.4044   12.2255  -20.8997 C   0  0  0  0  0  0  0  0  0  0  0  0
   10.6337   13.3194  -20.0779 N   0  0  0  0  0  0  0  0  0  0  0  0
    9.0743   11.8347  -20.8749 N   0  0  0  0  0  0  0  0  0  0  0  0
   11.2669   11.6702  -21.5735 O   0  0  0  0  0  0  0  0  0  0  0  0
    9.8983   13.5900  -19.4435 H   0  0  0  0  0  0  0  0  0  0  0  0
    8.4732   12.2949  -20.2087 H   0  0  0  0  0  0  0  0  0  0  0  0
    8.4793   10.8273  -21.6747 C   0  0  0  0  0  0  0  0  0  0  0  0
    8.2376    9.5717  -21.1174 C   0  0  0  0  0  0  0  0  0  0  0  0
    7.3197    8.7418  -23.0572 C   0  0  0  0  0  0  0  0  0  0  0  0
    7.5048    9.9483  -23.7069 C   0  0  0  0  0  0  0  0  0  0  0  0
    8.0902   11.0008  -23.0024 C   0  0  0  0  0  0  0  0  0  0  0  0
    7.6708    8.5267  -21.7722 N   0  0  0  0  0  0  0  0  0  0  0  0
  7  8  1  0  0  0
  8  9  1  0  0  0
  9 10  1  0  0  0
  9  1  1  0  0  0
 10 12  1  0  0  0
 11 12  1  0  0  0
 11  7  1  0  0  0
 14 19  2  0  0  0
 15 20  2  0  0  0
 16 17  1  0  0  0
 16 13  2  0  0  0
 18 21  1  0  0  0
  2  3  2  0  0  0
  3 24  1  0  0  0
  4  5  2  0  0  0
  6  1  2  0  0  0
 23 25  1  0  0  0
 30 34  2  0  0  0
 31 32  2  0  0  0
 33 29  2  0  0  0
 12 13  1  0  0  0
 21 15  1  0  0  0
 24 23  1  0  0  0
 25 29  1  0  0  0
 13 19  1  0  0  0
 14 20  1  0  0  0
 15 16  1  0  0  0
 17 18  2  0  0  0
  1  2  1  0  0  0
  3  4  1  0  0  0
  5  6  1  0  0  0
 23 26  2  0  0  0
 29 30  1  0  0  0
 31 34  1  0  0  0
 32 33  1  0  0  0
 21 22  1  0  0  0
 24 27  1  0  0  0
 25 28  1  0  0  0
M  END
> <minimizedAffinity>
-9.16915

$$$$
CHEMBL4468002


 34 38  0  0  0  0  0  0  0  0999 V2000
   12.1193   14.4172  -13.8998 C   0  0  0  0  0  0  0  0  0  0  0  0
   12.8763   14.9454  -14.9655 C   0  0  0  0  0  0  0  0  0  0  0  0
   13.8306   15.9533  -14.7573 C   0  0  0  0  0  0  0  0  0  0  0  0
   13.9967   16.4554  -13.4659 C   0  0  0  0  0  0  0  0  0  0  0  0
   13.2466   15.9532  -12.4021 C   0  0  0  0  0  0  0  0  0  0  0  0
   12.3170   14.9401  -12.6156 C   0  0  0  0  0  0  0  0  0  0  0  0
    8.8434   13.0325  -15.1863 C   0  0  0  0  0  0  0  0  0  0  0  0
    9.6659   13.7935  -14.1499 C   0  0  0  0  0  0  0  0  0  0  0  0
   11.1200   13.2823  -14.0941 C   0  0  0  0  0  0  0  0  0  0  0  0
   11.4809   12.3616  -15.2849 C   0  0  0  0  0  0  0  0  0  0  0  0
    9.4843   13.1736  -16.5686 C   0  0  0  0  0  0  0  0  0  0  0  0
   10.9073   12.8650  -16.5382 N   0  0  0  0  0  0  0  0  0  0  0  0
   11.7344   13.0152  -17.6411 C   0  0  0  0  0  0  0  0  0  0  0  0
   13.7506   13.8819  -18.4950 C   0  0  0  0  0  0  0  0  0  0  0  0
   12.3787   12.9486  -19.9478 C   0  0  0  0  0  0  0  0  0  0  0  0
   11.4394   12.6239  -18.9744 C   0  0  0  0  0  0  0  0  0  0  0  0
   10.3817   11.9647  -19.6771 C   0  0  0  0  0  0  0  0  0  0  0  0
   10.7000   11.9299  -21.0186 C   0  0  0  0  0  0  0  0  0  0  0  0
   12.9329   13.6422  -17.4562 N   0  0  0  0  0  0  0  0  0  0  0  0
   13.5479   13.5781  -19.7807 N   0  0  0  0  0  0  0  0  0  0  0  0
   11.9213   12.5267  -21.1649 N   0  0  0  0  0  0  0  0  0  0  0  0
   12.4321   12.6528  -22.0268 H   0  0  0  0  0  0  0  0  0  0  0  0
   15.6897   17.2290  -15.8466 C   0  0  0  0  0  0  0  0  0  0  0  0
   14.5667   16.4150  -15.8769 N   0  0  0  0  0  0  0  0  0  0  0  0
   16.0750   17.6198  -17.1199 N   0  0  0  0  0  0  0  0  0  0  0  0
   16.2724   17.5704  -14.8219 O   0  0  0  0  0  0  0  0  0  0  0  0
   14.2703   16.0604  -16.7730 H   0  0  0  0  0  0  0  0  0  0  0  0
   15.5884   17.1983  -17.8961 H   0  0  0  0  0  0  0  0  0  0  0  0
   17.1095   18.5335  -17.4417 C   0  0  0  0  0  0  0  0  0  0  0  0
   16.7771   19.7647  -18.0065 C   0  0  0  0  0  0  0  0  0  0  0  0
   18.9701   20.4509  -18.1248 C   0  0  0  0  0  0  0  0  0  0  0  0
   19.4114   19.2673  -17.5623 C   0  0  0  0  0  0  0  0  0  0  0  0
   18.4658   18.3013  -17.2168 C   0  0  0  0  0  0  0  0  0  0  0  0
   17.6693   20.7265  -18.3543 N   0  0  0  0  0  0  0  0  0  0  0  0
  7  8  1  0  0  0
  8  9  1  0  0  0
  9 10  1  0  0  0
  9  1  1  0  0  0
 10 12  1  0  0  0
 11 12  1  0  0  0
 11  7  1  0  0  0
 14 19  2  0  0  0
 15 20  2  0  0  0
 16 17  1  0  0  0
 16 13  2  0  0  0
 18 21  1  0  0  0
  2  3  2  0  0  0
  3 24  1  0  0  0
  4  5  2  0  0  0
  6  1  2  0  0  0
 23 25  1  0  0  0
 30 34  2  0  0  0
 31 32  2  0  0  0
 33 29  2  0  0  0
 12 13  1  0  0  0
 21 15  1  0  0  0
 24 23  1  0  0  0
 25 29  1  0  0  0
 13 19  1  0  0  0
 14 20  1  0  0  0
 15 16  1  0  0  0
 17 18  2  0  0  0
  1  2  1  0  0  0
  3  4  1  0  0  0
  5  6  1  0  0  0
 23 26  2  0  0  0
 29 30  1  0  0  0
 31 34  1  0  0  0
 32 33  1  0  0  0
 21 22  1  0  0  0
 24 27  1  0  0  0
 25 28  1  0  0  0
M  END
> <minimizedAffinity>
-9.15415

$$$$
CHEMBL4468002


 34 38  0  0  0  0  0  0  0  0999 V2000
    9.6757   12.0468  -19.8682 C   0  0  0  0  0  0  0  0  0  0  0  0
   10.3535   13.0352  -19.1254 C   0  0  0  0  0  0  0  0  0  0  0  0
    9.7792   13.6166  -17.9844 C   0  0  0  0  0  0  0  0  0  0  0  0
    8.4945   13.2199  -17.6107 C   0  0  0  0  0  0  0  0  0  0  0  0
    7.8044   12.2526  -18.3421 C   0  0  0  0  0  0  0  0  0  0  0  0
    8.3905   11.6679  -19.4604 C   0  0  0  0  0  0  0  0  0  0  0  0
    9.9971   11.4699  -23.5922 C   0  0  0  0  0  0  0  0  0  0  0  0
    9.3124   11.2291  -22.2494 C   0  0  0  0  0  0  0  0  0  0  0  0
   10.3044   11.3607  -21.0758 C   0  0  0  0  0  0  0  0  0  0  0  0
   11.6516   11.9978  -21.4945 C   0  0  0  0  0  0  0  0  0  0  0  0
   10.6281   12.8636  -23.6149 C   0  0  0  0  0  0  0  0  0  0  0  0
   11.4459   13.1056  -22.4343 N   0  0  0  0  0  0  0  0  0  0  0  0
   12.0436   14.3287  -22.1698 C   0  0  0  0  0  0  0  0  0  0  0  0
   13.6823   15.5050  -20.9548 C   0  0  0  0  0  0  0  0  0  0  0  0
   12.3226   16.7080  -22.2071 C   0  0  0  0  0  0  0  0  0  0  0  0
   11.6322   15.5927  -22.6705 C   0  0  0  0  0  0  0  0  0  0  0  0
   10.6363   16.1090  -23.5586 C   0  0  0  0  0  0  0  0  0  0  0  0
   10.7433   17.4837  -23.5878 C   0  0  0  0  0  0  0  0  0  0  0  0
   13.1020   14.3458  -21.3077 N   0  0  0  0  0  0  0  0  0  0  0  0
   13.3495   16.7380  -21.3492 N   0  0  0  0  0  0  0  0  0  0  0  0
   11.7787   17.8310  -22.7652 N   0  0  0  0  0  0  0  0  0  0  0  0
   12.1129   18.7651  -22.5772 H   0  0  0  0  0  0  0  0  0  0  0  0
   11.2822   14.3739  -16.1303 C   0  0  0  0  0  0  0  0  0  0  0  0
   10.5345   14.5866  -17.2794 N   0  0  0  0  0  0  0  0  0  0  0  0
   11.7723   15.5618  -15.6095 N   0  0  0  0  0  0  0  0  0  0  0  0
   11.4842   13.2729  -15.6272 O   0  0  0  0  0  0  0  0  0  0  0  0
   10.5722   15.5026  -17.6989 H   0  0  0  0  0  0  0  0  0  0  0  0
   11.6329   16.3957  -16.1590 H   0  0  0  0  0  0  0  0  0  0  0  0
   12.4795   15.7169  -14.3911 C   0  0  0  0  0  0  0  0  0  0  0  0
   13.8205   16.0985  -14.4278 C   0  0  0  0  0  0  0  0  0  0  0  0
   14.0232   16.0853  -12.1359 C   0  0  0  0  0  0  0  0  0  0  0  0
   12.7001   15.7142  -11.9821 C   0  0  0  0  0  0  0  0  0  0  0  0
   11.9229   15.5309  -13.1263 C   0  0  0  0  0  0  0  0  0  0  0  0
   14.6054   16.2859  -13.3365 N   0  0  0  0  0  0  0  0  0  0  0  0
  7  8  1  0  0  0
  8  9  1  0  0  0
  9 10  1  0  0  0
  9  1  1  0  0  0
 10 12  1  0  0  0
 11 12  1  0  0  0
 11  7  1  0  0  0
 14 19  2  0  0  0
 15 20  2  0  0  0
 16 17  1  0  0  0
 16 13  2  0  0  0
 18 21  1  0  0  0
  2  3  2  0  0  0
  3 24  1  0  0  0
  4  5  2  0  0  0
  6  1  2  0  0  0
 23 25  1  0  0  0
 30 34  2  0  0  0
 31 32  2  0  0  0
 33 29  2  0  0  0
 12 13  1  0  0  0
 21 15  1  0  0  0
 24 23  1  0  0  0
 25 29  1  0  0  0
 13 19  1  0  0  0
 14 20  1  0  0  0
 15 16  1  0  0  0
 17 18  2  0  0  0
  1  2  1  0  0  0
  3  4  1  0  0  0
  5  6  1  0  0  0
 23 26  2  0  0  0
 29 30  1  0  0  0
 31 34  1  0  0  0
 32 33  1  0  0  0
 21 22  1  0  0  0
 24 27  1  0  0  0
 25 28  1  0  0  0
M  END
> <minimizedAffinity>
-8.83377

$$$$
CHEMBL4468002


 34 38  0  0  0  0  0  0  0  0999 V2000
   11.1068   13.7365  -18.5910 C   0  0  0  0  0  0  0  0  0  0  0  0
   12.2178   14.5946  -18.7231 C   0  0  0  0  0  0  0  0  0  0  0  0
   13.1827   14.3952  -19.7226 C   0  0  0  0  0  0  0  0  0  0  0  0
   13.0413   13.2989  -20.5743 C   0  0  0  0  0  0  0  0  0  0  0  0
   11.9550   12.4323  -20.4491 C   0  0  0  0  0  0  0  0  0  0  0  0
   10.9933   12.6501  -19.4675 C   0  0  0  0  0  0  0  0  0  0  0  0
    9.3174   12.8667  -15.3745 C   0  0  0  0  0  0  0  0  0  0  0  0
    9.5831   12.6580  -16.8631 C   0  0  0  0  0  0  0  0  0  0  0  0
   10.0170   13.9687  -17.5504 C   0  0  0  0  0  0  0  0  0  0  0  0
   10.3776   15.0867  -16.5424 C   0  0  0  0  0  0  0  0  0  0  0  0
   10.5746   13.4068  -14.6897 C   0  0  0  0  0  0  0  0  0  0  0  0
   11.1280   14.5508  -15.4010 N   0  0  0  0  0  0  0  0  0  0  0  0
   12.3212   15.1576  -15.0389 C   0  0  0  0  0  0  0  0  0  0  0  0
   14.4268   15.9483  -15.7367 C   0  0  0  0  0  0  0  0  0  0  0  0
   14.0101   16.0156  -13.5720 C   0  0  0  0  0  0  0  0  0  0  0  0
   12.7308   15.4896  -13.7199 C   0  0  0  0  0  0  0  0  0  0  0  0
   12.1950   15.4249  -12.3948 C   0  0  0  0  0  0  0  0  0  0  0  0
   13.1494   15.8848  -11.5118 C   0  0  0  0  0  0  0  0  0  0  0  0
   13.2238   15.4253  -16.0275 N   0  0  0  0  0  0  0  0  0  0  0  0
   14.9092   16.2658  -14.5313 N   0  0  0  0  0  0  0  0  0  0  0  0
   14.2450   16.2465  -12.2453 N   0  0  0  0  0  0  0  0  0  0  0  0
   15.1102   16.6272  -11.8903 H   0  0  0  0  0  0  0  0  0  0  0  0
   14.4126   16.3209  -20.7469 C   0  0  0  0  0  0  0  0  0  0  0  0
   14.2575   15.3155  -19.8037 N   0  0  0  0  0  0  0  0  0  0  0  0
   15.6475   16.9418  -20.6369 N   0  0  0  0  0  0  0  0  0  0  0  0
   13.5674   16.6251  -21.5830 O   0  0  0  0  0  0  0  0  0  0  0  0
   14.9378   15.2615  -19.0615 H   0  0  0  0  0  0  0  0  0  0  0  0
   16.2228   16.6829  -19.8502 H   0  0  0  0  0  0  0  0  0  0  0  0
   16.1715   17.9305  -21.5067 C   0  0  0  0  0  0  0  0  0  0  0  0
   16.7060   17.5409  -22.7347 C   0  0  0  0  0  0  0  0  0  0  0  0
   17.2248   19.6986  -23.3423 C   0  0  0  0  0  0  0  0  0  0  0  0
   16.7131   20.1964  -22.1581 C   0  0  0  0  0  0  0  0  0  0  0  0
   16.1796   19.2978  -21.2336 C   0  0  0  0  0  0  0  0  0  0  0  0
   17.2322   18.3865  -23.6567 N   0  0  0  0  0  0  0  0  0  0  0  0
  7  8  1  0  0  0
  8  9  1  0  0  0
  9 10  1  0  0  0
  9  1  1  0  0  0
 10 12  1  0  0  0
 11 12  1  0  0  0
 11  7  1  0  0  0
 14 19  2  0  0  0
 15 20  2  0  0  0
 16 17  1  0  0  0
 16 13  2  0  0  0
 18 21  1  0  0  0
  2  3  2  0  0  0
  3 24  1  0  0  0
  4  5  2  0  0  0
  6  1  2  0  0  0
 23 25  1  0  0  0
 30 34  2  0  0  0
 31 32  2  0  0  0
 33 29  2  0  0  0
 12 13  1  0  0  0
 21 15  1  0  0  0
 24 23  1  0  0  0
 25 29  1  0  0  0
 13 19  1  0  0  0
 14 20  1  0  0  0
 15 16  1  0  0  0
 17 18  2  0  0  0
  1  2  1  0  0  0
  3  4  1  0  0  0
  5  6  1  0  0  0
 23 26  2  0  0  0
 29 30  1  0  0  0
 31 34  1  0  0  0
 32 33  1  0  0  0
 21 22  1  0  0  0
 24 27  1  0  0  0
 25 28  1  0  0  0
M  END
> <minimizedAffinity>
-8.76479

$$$$
CHEMBL4468002


 34 38  0  0  0  0  0  0  0  0999 V2000
   11.5475   13.6499  -21.3600 C   0  0  0  0  0  0  0  0  0  0  0  0
   11.1660   14.1952  -20.1170 C   0  0  0  0  0  0  0  0  0  0  0  0
   10.5727   13.4040  -19.1210 C   0  0  0  0  0  0  0  0  0  0  0  0
   10.3318   12.0575  -19.3969 C   0  0  0  0  0  0  0  0  0  0  0  0
   10.6911   11.5047  -20.6266 C   0  0  0  0  0  0  0  0  0  0  0  0
   11.2968   12.2930  -21.6001 C   0  0  0  0  0  0  0  0  0  0  0  0
   12.4206   16.9450  -22.9983 C   0  0  0  0  0  0  0  0  0  0  0  0
   11.4737   15.7715  -22.7615 C   0  0  0  0  0  0  0  0  0  0  0  0
   12.2461   14.4775  -22.4330 C   0  0  0  0  0  0  0  0  0  0  0  0
   13.7401   14.7314  -22.1178 C   0  0  0  0  0  0  0  0  0  0  0  0
   13.2902   17.1734  -21.7602 C   0  0  0  0  0  0  0  0  0  0  0  0
   13.9131   15.9391  -21.3025 N   0  0  0  0  0  0  0  0  0  0  0  0
   14.6676   15.8616  -20.1415 C   0  0  0  0  0  0  0  0  0  0  0  0
   14.9225   14.8882  -18.0124 C   0  0  0  0  0  0  0  0  0  0  0  0
   16.3510   16.4793  -18.5526 C   0  0  0  0  0  0  0  0  0  0  0  0
   15.7921   16.6648  -19.8129 C   0  0  0  0  0  0  0  0  0  0  0  0
   16.5721   17.6980  -20.4221 C   0  0  0  0  0  0  0  0  0  0  0  0
   17.5393   18.1044  -19.5269 C   0  0  0  0  0  0  0  0  0  0  0  0
   14.2774   14.9654  -19.1884 N   0  0  0  0  0  0  0  0  0  0  0  0
   15.9663   15.6167  -17.6044 N   0  0  0  0  0  0  0  0  0  0  0  0
   17.3950   17.3480  -18.3972 N   0  0  0  0  0  0  0  0  0  0  0  0
   17.9566   17.4007  -17.5598 H   0  0  0  0  0  0  0  0  0  0  0  0
   10.9784   13.9754  -16.7171 C   0  0  0  0  0  0  0  0  0  0  0  0
   10.2393   14.0223  -17.8901 N   0  0  0  0  0  0  0  0  0  0  0  0
   10.2973   14.5553  -15.6577 N   0  0  0  0  0  0  0  0  0  0  0  0
   12.0961   13.4780  -16.6200 O   0  0  0  0  0  0  0  0  0  0  0  0
    9.4124   14.5992  -17.8991 H   0  0  0  0  0  0  0  0  0  0  0  0
    9.4307   15.0246  -15.8712 H   0  0  0  0  0  0  0  0  0  0  0  0
   10.7145   14.5808  -14.3034 C   0  0  0  0  0  0  0  0  0  0  0  0
    9.9651   13.8937  -13.3486 C   0  0  0  0  0  0  0  0  0  0  0  0
   11.3651   14.4959  -11.6249 C   0  0  0  0  0  0  0  0  0  0  0  0
   12.1853   15.2016  -12.4859 C   0  0  0  0  0  0  0  0  0  0  0  0
   11.8526   15.2399  -13.8404 C   0  0  0  0  0  0  0  0  0  0  0  0
   10.2588   13.8350  -12.0249 N   0  0  0  0  0  0  0  0  0  0  0  0
  7  8  1  0  0  0
  8  9  1  0  0  0
  9 10  1  0  0  0
  9  1  1  0  0  0
 10 12  1  0  0  0
 11 12  1  0  0  0
 11  7  1  0  0  0
 14 19  2  0  0  0
 15 20  2  0  0  0
 16 17  1  0  0  0
 16 13  2  0  0  0
 18 21  1  0  0  0
  2  3  2  0  0  0
  3 24  1  0  0  0
  4  5  2  0  0  0
  6  1  2  0  0  0
 23 25  1  0  0  0
 30 34  2  0  0  0
 31 32  2  0  0  0
 33 29  2  0  0  0
 12 13  1  0  0  0
 21 15  1  0  0  0
 24 23  1  0  0  0
 25 29  1  0  0  0
 13 19  1  0  0  0
 14 20  1  0  0  0
 15 16  1  0  0  0
 17 18  2  0  0  0
  1  2  1  0  0  0
  3  4  1  0  0  0
  5  6  1  0  0  0
 23 26  2  0  0  0
 29 30  1  0  0  0
 31 34  1  0  0  0
 32 33  1  0  0  0
 21 22  1  0  0  0
 24 27  1  0  0  0
 25 28  1  0  0  0
M  END
> <minimizedAffinity>
-8.67360

$$$$
CHEMBL4468002


 34 38  0  0  0  0  0  0  0  0999 V2000
   16.5685   17.7659  -16.2992 C   0  0  0  0  0  0  0  0  0  0  0  0
   15.3977   17.0099  -16.0854 C   0  0  0  0  0  0  0  0  0  0  0  0
   14.9616   16.6847  -14.7916 C   0  0  0  0  0  0  0  0  0  0  0  0
   15.7343   17.0983  -13.7057 C   0  0  0  0  0  0  0  0  0  0  0  0
   16.9026   17.8359  -13.8999 C   0  0  0  0  0  0  0  0  0  0  0  0
   17.3158   18.1701  -15.1858 C   0  0  0  0  0  0  0  0  0  0  0  0
   17.9256   20.3024  -18.7545 C   0  0  0  0  0  0  0  0  0  0  0  0
   16.7789   19.6775  -17.9643 C   0  0  0  0  0  0  0  0  0  0  0  0
   17.0281   18.1798  -17.6926 C   0  0  0  0  0  0  0  0  0  0  0  0
   18.4820   17.7459  -17.9989 C   0  0  0  0  0  0  0  0  0  0  0  0
   19.2397   20.1374  -17.9882 C   0  0  0  0  0  0  0  0  0  0  0  0
   19.4439   18.7617  -17.5561 N   0  0  0  0  0  0  0  0  0  0  0  0
   20.5095   18.3730  -16.7583 C   0  0  0  0  0  0  0  0  0  0  0  0
   21.9020   18.8920  -14.9315 C   0  0  0  0  0  0  0  0  0  0  0  0
   22.4115   17.0818  -16.0836 C   0  0  0  0  0  0  0  0  0  0  0  0
   21.3400   17.2379  -16.9569 C   0  0  0  0  0  0  0  0  0  0  0  0
   21.4281   16.1332  -17.8619 C   0  0  0  0  0  0  0  0  0  0  0  0
   22.5309   15.3763  -17.5256 C   0  0  0  0  0  0  0  0  0  0  0  0
   20.8382   19.1735  -15.7024 N   0  0  0  0  0  0  0  0  0  0  0  0
   22.7532   17.8692  -15.0567 N   0  0  0  0  0  0  0  0  0  0  0  0
   23.1138   15.9636  -16.4373 N   0  0  0  0  0  0  0  0  0  0  0  0
   23.9380   15.6451  -15.9487 H   0  0  0  0  0  0  0  0  0  0  0  0
   13.4624   14.7421  -15.2903 C   0  0  0  0  0  0  0  0  0  0  0  0
   13.7622   15.9413  -14.6604 N   0  0  0  0  0  0  0  0  0  0  0  0
   12.1485   14.3595  -15.0669 N   0  0  0  0  0  0  0  0  0  0  0  0
   14.2558   14.0967  -15.9685 O   0  0  0  0  0  0  0  0  0  0  0  0
   13.0950   16.2994  -13.9947 H   0  0  0  0  0  0  0  0  0  0  0  0
   11.6155   14.9096  -14.4112 H   0  0  0  0  0  0  0  0  0  0  0  0
   11.4862   13.2492  -15.6478 C   0  0  0  0  0  0  0  0  0  0  0  0
   10.7224   13.4400  -16.7992 C   0  0  0  0  0  0  0  0  0  0  0  0
   10.1345   11.2197  -16.9358 C   0  0  0  0  0  0  0  0  0  0  0  0
   10.8696   10.9153  -15.8048 C   0  0  0  0  0  0  0  0  0  0  0  0
   11.5531   11.9455  -15.1580 C   0  0  0  0  0  0  0  0  0  0  0  0
   10.0455   12.4624  -17.4537 N   0  0  0  0  0  0  0  0  0  0  0  0
  7  8  1  0  0  0
  8  9  1  0  0  0
  9 10  1  0  0  0
  9  1  1  0  0  0
 10 12  1  0  0  0
 11 12  1  0  0  0
 11  7  1  0  0  0
 14 19  2  0  0  0
 15 20  2  0  0  0
 16 17  1  0  0  0
 16 13  2  0  0  0
 18 21  1  0  0  0
  2  3  2  0  0  0
  3 24  1  0  0  0
  4  5  2  0  0  0
  6  1  2  0  0  0
 23 25  1  0  0  0
 30 34  2  0  0  0
 31 32  2  0  0  0
 33 29  2  0  0  0
 12 13  1  0  0  0
 21 15  1  0  0  0
 24 23  1  0  0  0
 25 29  1  0  0  0
 13 19  1  0  0  0
 14 20  1  0  0  0
 15 16  1  0  0  0
 17 18  2  0  0  0
  1  2  1  0  0  0
  3  4  1  0  0  0
  5  6  1  0  0  0
 23 26  2  0  0  0
 29 30  1  0  0  0
 31 34  1  0  0  0
 32 33  1  0  0  0
 21 22  1  0  0  0
 24 27  1  0  0  0
 25 28  1  0  0  0
M  END
> <minimizedAffinity>
-8.45100

$$$$
CHEMBL585734


 37 40  0  0  0  0  0  0  0  0999 V2000
    9.3167   11.8847  -18.3547 C   0  0  0  0  0  0  0  0  0  0  0  0
    8.0284   11.6959  -18.2420 N   0  0  0  0  0  0  0  0  0  0  0  0
   12.1121   13.1923  -16.2443 C   0  0  0  0  0  0  0  0  0  0  0  0
   11.0692   12.1413  -16.6388 C   0  0  0  0  0  0  0  0  0  0  0  0
    9.3474   13.9709  -16.8898 C   0  0  0  0  0  0  0  0  0  0  0  0
    8.4619   14.6893  -17.9272 C   0  0  0  0  0  0  0  0  0  0  0  0
   10.4501   14.9788  -16.4547 C   0  0  0  0  0  0  0  0  0  0  0  0
   11.4927   14.3653  -15.6305 N   0  0  0  0  0  0  0  0  0  0  0  0
    9.9186   12.6932  -17.4015 N   0  0  0  0  0  0  0  0  0  0  0  0
   14.2904   16.0209  -14.7776 C   0  0  0  0  0  0  0  0  0  0  0  0
   13.5029   15.7914  -13.5373 C   0  0  0  0  0  0  0  0  0  0  0  0
   13.8704   16.2126  -12.2705 C   0  0  0  0  0  0  0  0  0  0  0  0
   11.9674   15.0582  -12.0429 C   0  0  0  0  0  0  0  0  0  0  0  0
   10.1678   13.8073  -12.3310 C   0  0  0  0  0  0  0  0  0  0  0  0
   11.3443   14.4124  -14.2554 C   0  0  0  0  0  0  0  0  0  0  0  0
   12.2545   15.0839  -13.4009 C   0  0  0  0  0  0  0  0  0  0  0  0
   12.9353   15.7589  -11.3805 N   0  0  0  0  0  0  0  0  0  0  0  0
   10.9362   14.4512  -11.4403 N   0  0  0  0  0  0  0  0  0  0  0  0
   10.3081   13.7524  -13.6712 N   0  0  0  0  0  0  0  0  0  0  0  0
   12.9525   15.8838  -10.3789 H   0  0  0  0  0  0  0  0  0  0  0  0
    7.4186   10.8786  -19.1035 C   0  0  0  0  0  0  0  0  0  0  0  0
    6.9255   10.1436  -19.8501 N   0  0  0  0  0  0  0  0  0  0  0  0
   10.1315   11.2834  -19.2954 N   0  0  0  0  0  0  0  0  0  0  0  0
   10.1328   10.2683  -19.3093 H   0  0  0  0  0  0  0  0  0  0  0  0
   10.7315   11.8301  -20.4510 C   0  0  0  0  0  0  0  0  0  0  0  0
   10.3316   11.4980  -21.7471 C   0  0  0  0  0  0  0  0  0  0  0  0
   10.8485   12.1508  -22.8640 C   0  0  0  0  0  0  0  0  0  0  0  0
   11.8195   13.1334  -22.7073 C   0  0  0  0  0  0  0  0  0  0  0  0
   12.2919   13.4525  -21.4299 C   0  0  0  0  0  0  0  0  0  0  0  0
   11.7282   12.8092  -20.3100 C   0  0  0  0  0  0  0  0  0  0  0  0
   13.3700   14.4636  -21.1960 C   0  0  0  0  0  0  0  0  0  0  0  0
   13.6435   15.3541  -22.2176 N   0  0  0  0  0  0  0  0  0  0  0  0
   13.9850   14.4637  -20.1341 O   0  0  0  0  0  0  0  0  0  0  0  0
   13.1771   15.2794  -23.1067 H   0  0  0  0  0  0  0  0  0  0  0  0
   14.6952   16.3546  -22.1053 C   0  0  0  0  0  0  0  0  0  0  0  0
   14.0998   17.6850  -21.6495 C   0  0  0  0  0  0  0  0  0  0  0  0
   15.4225   16.5220  -23.4379 C   0  0  0  0  0  0  0  0  0  0  0  0
 10 11  1  0  0  0
 12 17  1  0  0  0
 14 18  2  0  0  0
 15 19  2  0  0  0
 15  8  1  0  0  0
  3  8  1  0  0  0
  3  4  1  0  0  0
  4  9  1  0  0  0
  1 23  1  0  0  0
 26 27  2  0  0  0
 28 29  2  0  0  0
 29 31  1  0  0  0
 31 32  1  0  0  0
 35 32  1  0  0  0
 35 36  1  0  0  0
 35 37  1  0  0  0
 30 25  2  0  0  0
  5  9  1  0  0  0
  5  6  1  0  0  0
  5  7  1  0  0  0
  7  8  1  0  0  0
 16 11  1  0  0  0
 16 13  2  0  0  0
 17 13  1  0  0  0
  9  1  1  0  0  0
  2 21  1  0  0  0
 23 25  1  0  0  0
 11 12  2  0  0  0
 13 18  1  0  0  0
 14 19  1  0  0  0
 15 16  1  0  0  0
  1  2  2  0  0  0
 25 26  1  0  0  0
 27 28  1  0  0  0
 29 30  1  0  0  0
 31 33  2  0  0  0
 21 22  3  0  0  0
 17 20  1  0  0  0
 23 24  1  0  0  0
 32 34  1  0  0  0
M  END
> <minimizedAffinity>
-9.64084

$$$$
CHEMBL585734


 37 40  0  0  0  0  0  0  0  0999 V2000
    9.5654   11.9924  -18.2985 C   0  0  0  0  0  0  0  0  0  0  0  0
    8.2685   11.8599  -18.2058 N   0  0  0  0  0  0  0  0  0  0  0  0
   10.1563   14.9304  -16.0631 C   0  0  0  0  0  0  0  0  0  0  0  0
   10.1899   14.2081  -17.4141 C   0  0  0  0  0  0  0  0  0  0  0  0
   11.1017   12.1501  -16.2702 C   0  0  0  0  0  0  0  0  0  0  0  0
   10.7632   10.6867  -15.9237 C   0  0  0  0  0  0  0  0  0  0  0  0
   11.0666   12.9543  -14.9387 C   0  0  0  0  0  0  0  0  0  0  0  0
   11.1597   14.4010  -15.1416 N   0  0  0  0  0  0  0  0  0  0  0  0
   10.1945   12.7256  -17.3029 N   0  0  0  0  0  0  0  0  0  0  0  0
   11.3422   15.1989  -11.8818 C   0  0  0  0  0  0  0  0  0  0  0  0
   12.6404   15.5598  -12.5109 C   0  0  0  0  0  0  0  0  0  0  0  0
   13.7234   16.1082  -11.8449 C   0  0  0  0  0  0  0  0  0  0  0  0
   14.2838   15.9919  -14.0079 C   0  0  0  0  0  0  0  0  0  0  0  0
   14.3288   15.7364  -16.2030 C   0  0  0  0  0  0  0  0  0  0  0  0
   12.4145   14.9829  -15.0979 C   0  0  0  0  0  0  0  0  0  0  0  0
   13.0133   15.4431  -13.8982 C   0  0  0  0  0  0  0  0  0  0  0  0
   14.7046   16.3661  -12.7631 N   0  0  0  0  0  0  0  0  0  0  0  0
   15.0052   16.1578  -15.1245 N   0  0  0  0  0  0  0  0  0  0  0  0
   13.1046   15.1729  -16.2547 N   0  0  0  0  0  0  0  0  0  0  0  0
   15.5994   16.7954  -12.5780 H   0  0  0  0  0  0  0  0  0  0  0  0
    7.6301   11.1141  -19.1102 C   0  0  0  0  0  0  0  0  0  0  0  0
    7.1097   10.4379  -19.8930 N   0  0  0  0  0  0  0  0  0  0  0  0
   10.3610   11.3980  -19.2599 N   0  0  0  0  0  0  0  0  0  0  0  0
   10.3659   10.3829  -19.2778 H   0  0  0  0  0  0  0  0  0  0  0  0
   10.9324   11.9515  -20.4266 C   0  0  0  0  0  0  0  0  0  0  0  0
   10.5169   11.6090  -21.7150 C   0  0  0  0  0  0  0  0  0  0  0  0
   11.0041   12.2674  -22.8420 C   0  0  0  0  0  0  0  0  0  0  0  0
   11.9607   13.2668  -22.7039 C   0  0  0  0  0  0  0  0  0  0  0  0
   12.4486   13.5975  -21.4353 C   0  0  0  0  0  0  0  0  0  0  0  0
   11.9144   12.9478  -20.3046 C   0  0  0  0  0  0  0  0  0  0  0  0
   13.5129   14.6274  -21.2217 C   0  0  0  0  0  0  0  0  0  0  0  0
   13.8073   15.4705  -22.2772 N   0  0  0  0  0  0  0  0  0  0  0  0
   14.0996   14.6832  -20.1454 O   0  0  0  0  0  0  0  0  0  0  0  0
   13.3652   15.3497  -23.1737 H   0  0  0  0  0  0  0  0  0  0  0  0
   14.8486   16.4839  -22.1854 C   0  0  0  0  0  0  0  0  0  0  0  0
   14.2358   17.8230  -21.7811 C   0  0  0  0  0  0  0  0  0  0  0  0
   15.5910   16.6140  -23.5139 C   0  0  0  0  0  0  0  0  0  0  0  0
 10 11  1  0  0  0
 12 17  1  0  0  0
 14 18  2  0  0  0
 15 19  2  0  0  0
 15  8  1  0  0  0
  3  8  1  0  0  0
  3  4  1  0  0  0
  4  9  1  0  0  0
  1 23  1  0  0  0
 26 27  2  0  0  0
 28 29  2  0  0  0
 29 31  1  0  0  0
 31 32  1  0  0  0
 35 32  1  0  0  0
 35 36  1  0  0  0
 35 37  1  0  0  0
 30 25  2  0  0  0
  5  9  1  0  0  0
  5  6  1  0  0  0
  5  7  1  0  0  0
  7  8  1  0  0  0
 16 11  1  0  0  0
 16 13  2  0  0  0
 17 13  1  0  0  0
  9  1  1  0  0  0
  2 21  1  0  0  0
 23 25  1  0  0  0
 11 12  2  0  0  0
 13 18  1  0  0  0
 14 19  1  0  0  0
 15 16  1  0  0  0
  1  2  2  0  0  0
 25 26  1  0  0  0
 27 28  1  0  0  0
 29 30  1  0  0  0
 31 33  2  0  0  0
 21 22  3  0  0  0
 17 20  1  0  0  0
 23 24  1  0  0  0
 32 34  1  0  0  0
M  END
> <minimizedAffinity>
-9.44850

$$$$
CHEMBL585734


 37 40  0  0  0  0  0  0  0  0999 V2000
   10.4085   13.9968  -14.8801 C   0  0  0  0  0  0  0  0  0  0  0  0
    9.9167   13.3088  -13.8836 N   0  0  0  0  0  0  0  0  0  0  0  0
    9.8120   14.0341  -18.5708 C   0  0  0  0  0  0  0  0  0  0  0  0
    9.3661   14.1532  -17.1096 C   0  0  0  0  0  0  0  0  0  0  0  0
   10.7164   12.0945  -16.5492 C   0  0  0  0  0  0  0  0  0  0  0  0
   11.9366   11.6091  -15.7419 C   0  0  0  0  0  0  0  0  0  0  0  0
   11.1052   12.0196  -18.0539 C   0  0  0  0  0  0  0  0  0  0  0  0
   10.1189   12.6515  -18.9317 N   0  0  0  0  0  0  0  0  0  0  0  0
   10.2619   13.4562  -16.1493 N   0  0  0  0  0  0  0  0  0  0  0  0
   11.1508   12.4698  -22.1252 C   0  0  0  0  0  0  0  0  0  0  0  0
    9.9435   11.6125  -21.9888 C   0  0  0  0  0  0  0  0  0  0  0  0
    9.3766   10.8664  -23.0082 C   0  0  0  0  0  0  0  0  0  0  0  0
    8.0707   10.6048  -21.2104 C   0  0  0  0  0  0  0  0  0  0  0  0
    7.0956   10.7219  -19.2302 C   0  0  0  0  0  0  0  0  0  0  0  0
    9.1239   11.8541  -19.4696 C   0  0  0  0  0  0  0  0  0  0  0  0
    9.1290   11.4123  -20.8166 C   0  0  0  0  0  0  0  0  0  0  0  0
    8.2459   10.2678  -22.5228 N   0  0  0  0  0  0  0  0  0  0  0  0
    7.0280   10.2098  -20.4678 N   0  0  0  0  0  0  0  0  0  0  0  0
    8.0586   11.5031  -18.6999 N   0  0  0  0  0  0  0  0  0  0  0  0
    7.6059    9.6866  -23.0439 H   0  0  0  0  0  0  0  0  0  0  0  0
    9.9844   13.8191  -12.6520 C   0  0  0  0  0  0  0  0  0  0  0  0
   10.0713   14.2925  -11.5989 N   0  0  0  0  0  0  0  0  0  0  0  0
   10.9884   15.2472  -14.7765 N   0  0  0  0  0  0  0  0  0  0  0  0
   10.3854   16.0000  -14.4597 H   0  0  0  0  0  0  0  0  0  0  0  0
   12.3530   15.6085  -14.7367 C   0  0  0  0  0  0  0  0  0  0  0  0
   12.9907   16.0511  -13.5760 C   0  0  0  0  0  0  0  0  0  0  0  0
   14.3655   16.2725  -13.5335 C   0  0  0  0  0  0  0  0  0  0  0  0
   15.1341   16.0935  -14.6781 C   0  0  0  0  0  0  0  0  0  0  0  0
   14.5243   15.7102  -15.8772 C   0  0  0  0  0  0  0  0  0  0  0  0
   13.1388   15.4527  -15.8900 C   0  0  0  0  0  0  0  0  0  0  0  0
   15.2852   15.5485  -17.1555 C   0  0  0  0  0  0  0  0  0  0  0  0
   15.8796   16.6755  -17.6924 N   0  0  0  0  0  0  0  0  0  0  0  0
   15.3439   14.4477  -17.6945 O   0  0  0  0  0  0  0  0  0  0  0  0
   15.7480   17.5798  -17.2699 H   0  0  0  0  0  0  0  0  0  0  0  0
   16.6136   16.6338  -18.9490 C   0  0  0  0  0  0  0  0  0  0  0  0
   17.7999   17.5936  -18.8895 C   0  0  0  0  0  0  0  0  0  0  0  0
   15.6973   16.9869  -20.1189 C   0  0  0  0  0  0  0  0  0  0  0  0
 10 11  1  0  0  0
 12 17  1  0  0  0
 14 18  2  0  0  0
 15 19  2  0  0  0
 15  8  1  0  0  0
  3  8  1  0  0  0
  3  4  1  0  0  0
  4  9  1  0  0  0
  1 23  1  0  0  0
 26 27  2  0  0  0
 28 29  2  0  0  0
 29 31  1  0  0  0
 31 32  1  0  0  0
 35 32  1  0  0  0
 35 36  1  0  0  0
 35 37  1  0  0  0
 30 25  2  0  0  0
  5  9  1  0  0  0
  5  6  1  0  0  0
  5  7  1  0  0  0
  7  8  1  0  0  0
 16 11  1  0  0  0
 16 13  2  0  0  0
 17 13  1  0  0  0
  9  1  1  0  0  0
  2 21  1  0  0  0
 23 25  1  0  0  0
 11 12  2  0  0  0
 13 18  1  0  0  0
 14 19  1  0  0  0
 15 16  1  0  0  0
  1  2  2  0  0  0
 25 26  1  0  0  0
 27 28  1  0  0  0
 29 30  1  0  0  0
 31 33  2  0  0  0
 21 22  3  0  0  0
 17 20  1  0  0  0
 23 24  1  0  0  0
 32 34  1  0  0  0
M  END
> <minimizedAffinity>
-9.21279

$$$$
CHEMBL585734


 37 40  0  0  0  0  0  0  0  0999 V2000
   10.3795   12.3783  -18.7685 C   0  0  0  0  0  0  0  0  0  0  0  0
    9.1089   12.1034  -18.9027 N   0  0  0  0  0  0  0  0  0  0  0  0
   10.4224   15.2273  -16.3479 C   0  0  0  0  0  0  0  0  0  0  0  0
   10.7744   14.5552  -17.6792 C   0  0  0  0  0  0  0  0  0  0  0  0
   11.3945   12.4497  -16.4310 C   0  0  0  0  0  0  0  0  0  0  0  0
   10.9863   10.9770  -16.2294 C   0  0  0  0  0  0  0  0  0  0  0  0
   11.0454   13.2044  -15.1159 C   0  0  0  0  0  0  0  0  0  0  0  0
   11.1813   14.6569  -15.2366 N   0  0  0  0  0  0  0  0  0  0  0  0
   10.7552   13.0695  -17.6259 N   0  0  0  0  0  0  0  0  0  0  0  0
   10.8119   14.7989  -11.8990 C   0  0  0  0  0  0  0  0  0  0  0  0
   12.1785   15.2856  -12.2256 C   0  0  0  0  0  0  0  0  0  0  0  0
   13.1197   15.6999  -11.2983 C   0  0  0  0  0  0  0  0  0  0  0  0
   14.0210   16.0155  -13.3217 C   0  0  0  0  0  0  0  0  0  0  0  0
   14.4243   16.1973  -15.4874 C   0  0  0  0  0  0  0  0  0  0  0  0
   12.3896   15.2276  -14.8767 C   0  0  0  0  0  0  0  0  0  0  0  0
   12.7716   15.4470  -13.5293 C   0  0  0  0  0  0  0  0  0  0  0  0
   14.2236   16.1404  -11.9763 N   0  0  0  0  0  0  0  0  0  0  0  0
   14.9037   16.4030  -14.2519 N   0  0  0  0  0  0  0  0  0  0  0  0
   13.2468   15.6464  -15.8464 N   0  0  0  0  0  0  0  0  0  0  0  0
   15.0601   16.5311  -11.5681 H   0  0  0  0  0  0  0  0  0  0  0  0
    8.7115   11.3895  -19.9583 C   0  0  0  0  0  0  0  0  0  0  0  0
    8.3983   10.7404  -20.8646 N   0  0  0  0  0  0  0  0  0  0  0  0
   11.3794   11.9687  -19.6305 N   0  0  0  0  0  0  0  0  0  0  0  0
   11.5811   10.9739  -19.6483 H   0  0  0  0  0  0  0  0  0  0  0  0
   11.9639   12.6477  -20.7220 C   0  0  0  0  0  0  0  0  0  0  0  0
   11.9106   12.1707  -22.0333 C   0  0  0  0  0  0  0  0  0  0  0  0
   12.3779   12.9247  -23.1075 C   0  0  0  0  0  0  0  0  0  0  0  0
   12.9538   14.1703  -22.8842 C   0  0  0  0  0  0  0  0  0  0  0  0
   13.0822   14.6577  -21.5794 C   0  0  0  0  0  0  0  0  0  0  0  0
   12.5676   13.8978  -20.5100 C   0  0  0  0  0  0  0  0  0  0  0  0
   13.7363   15.9666  -21.2660 C   0  0  0  0  0  0  0  0  0  0  0  0
   14.9583   15.9318  -20.6203 N   0  0  0  0  0  0  0  0  0  0  0  0
   13.1743   17.0156  -21.5651 O   0  0  0  0  0  0  0  0  0  0  0  0
   15.3576   15.0588  -20.3169 H   0  0  0  0  0  0  0  0  0  0  0  0
   15.6625   17.1480  -20.2396 C   0  0  0  0  0  0  0  0  0  0  0  0
   16.5136   17.6422  -21.4072 C   0  0  0  0  0  0  0  0  0  0  0  0
   16.5327   16.9026  -19.0087 C   0  0  0  0  0  0  0  0  0  0  0  0
 10 11  1  0  0  0
 12 17  1  0  0  0
 14 18  2  0  0  0
 15 19  2  0  0  0
 15  8  1  0  0  0
  3  8  1  0  0  0
  3  4  1  0  0  0
  4  9  1  0  0  0
  1 23  1  0  0  0
 26 27  2  0  0  0
 28 29  2  0  0  0
 29 31  1  0  0  0
 31 32  1  0  0  0
 35 32  1  0  0  0
 35 36  1  0  0  0
 35 37  1  0  0  0
 30 25  2  0  0  0
  5  9  1  0  0  0
  5  6  1  0  0  0
  5  7  1  0  0  0
  7  8  1  0  0  0
 16 11  1  0  0  0
 16 13  2  0  0  0
 17 13  1  0  0  0
  9  1  1  0  0  0
  2 21  1  0  0  0
 23 25  1  0  0  0
 11 12  2  0  0  0
 13 18  1  0  0  0
 14 19  1  0  0  0
 15 16  1  0  0  0
  1  2  2  0  0  0
 25 26  1  0  0  0
 27 28  1  0  0  0
 29 30  1  0  0  0
 31 33  2  0  0  0
 21 22  3  0  0  0
 17 20  1  0  0  0
 23 24  1  0  0  0
 32 34  1  0  0  0
M  END
> <minimizedAffinity>
-9.20142

$$$$
CHEMBL585734


 37 40  0  0  0  0  0  0  0  0999 V2000
   10.8722   14.2206  -15.6680 C   0  0  0  0  0  0  0  0  0  0  0  0
   10.1544   13.2474  -15.1722 N   0  0  0  0  0  0  0  0  0  0  0  0
   13.0904   12.8705  -18.3578 C   0  0  0  0  0  0  0  0  0  0  0  0
   12.7907   13.7621  -17.1481 C   0  0  0  0  0  0  0  0  0  0  0  0
   10.5853   14.4081  -18.1942 C   0  0  0  0  0  0  0  0  0  0  0  0
    9.0591   14.2934  -18.0103 C   0  0  0  0  0  0  0  0  0  0  0  0
   10.9686   13.5061  -19.4026 C   0  0  0  0  0  0  0  0  0  0  0  0
   12.4150   13.3484  -19.5626 N   0  0  0  0  0  0  0  0  0  0  0  0
   11.3452   14.0559  -16.9616 N   0  0  0  0  0  0  0  0  0  0  0  0
   11.6780   11.9837  -22.5443 C   0  0  0  0  0  0  0  0  0  0  0  0
   12.4497   13.2301  -22.7938 C   0  0  0  0  0  0  0  0  0  0  0  0
   12.7767   13.7282  -24.0437 C   0  0  0  0  0  0  0  0  0  0  0  0
   13.7199   15.0874  -22.5375 C   0  0  0  0  0  0  0  0  0  0  0  0
   14.4870   16.0597  -20.7065 C   0  0  0  0  0  0  0  0  0  0  0  0
   13.0738   14.2250  -20.4069 C   0  0  0  0  0  0  0  0  0  0  0  0
   13.0194   14.1273  -21.8201 C   0  0  0  0  0  0  0  0  0  0  0  0
   13.5459   14.8466  -23.8710 N   0  0  0  0  0  0  0  0  0  0  0  0
   14.4630   16.0885  -22.0471 N   0  0  0  0  0  0  0  0  0  0  0  0
   13.8522   15.2067  -19.8770 N   0  0  0  0  0  0  0  0  0  0  0  0
   13.9590   15.4074  -24.6017 H   0  0  0  0  0  0  0  0  0  0  0  0
    9.6309   13.3888  -13.9524 C   0  0  0  0  0  0  0  0  0  0  0  0
    9.2177   13.5182  -12.8785 N   0  0  0  0  0  0  0  0  0  0  0  0
   11.1281   15.4238  -15.0377 N   0  0  0  0  0  0  0  0  0  0  0  0
   10.3489   16.0704  -14.9647 H   0  0  0  0  0  0  0  0  0  0  0  0
   12.2033   15.7927  -14.1997 C   0  0  0  0  0  0  0  0  0  0  0  0
   12.1774   15.6347  -12.8125 C   0  0  0  0  0  0  0  0  0  0  0  0
   13.2999   15.8816  -12.0252 C   0  0  0  0  0  0  0  0  0  0  0  0
   14.4744   16.3380  -12.6129 C   0  0  0  0  0  0  0  0  0  0  0  0
   14.5230   16.5680  -13.9918 C   0  0  0  0  0  0  0  0  0  0  0  0
   13.3897   16.2744  -14.7761 C   0  0  0  0  0  0  0  0  0  0  0  0
   15.7387   17.1053  -14.6793 C   0  0  0  0  0  0  0  0  0  0  0  0
   15.6618   17.3128  -16.0440 N   0  0  0  0  0  0  0  0  0  0  0  0
   16.7580   17.3240  -14.0320 O   0  0  0  0  0  0  0  0  0  0  0  0
   14.8388   17.0499  -16.5610 H   0  0  0  0  0  0  0  0  0  0  0  0
   16.7976   17.8000  -16.8136 C   0  0  0  0  0  0  0  0  0  0  0  0
   16.5059   19.2045  -17.3374 C   0  0  0  0  0  0  0  0  0  0  0  0
   17.1105   16.8517  -17.9693 C   0  0  0  0  0  0  0  0  0  0  0  0
 10 11  1  0  0  0
 12 17  1  0  0  0
 14 18  2  0  0  0
 15 19  2  0  0  0
 15  8  1  0  0  0
  3  8  1  0  0  0
  3  4  1  0  0  0
  4  9  1  0  0  0
  1 23  1  0  0  0
 26 27  2  0  0  0
 28 29  2  0  0  0
 29 31  1  0  0  0
 31 32  1  0  0  0
 35 32  1  0  0  0
 35 36  1  0  0  0
 35 37  1  0  0  0
 30 25  2  0  0  0
  5  9  1  0  0  0
  5  6  1  0  0  0
  5  7  1  0  0  0
  7  8  1  0  0  0
 16 11  1  0  0  0
 16 13  2  0  0  0
 17 13  1  0  0  0
  9  1  1  0  0  0
  2 21  1  0  0  0
 23 25  1  0  0  0
 11 12  2  0  0  0
 13 18  1  0  0  0
 14 19  1  0  0  0
 15 16  1  0  0  0
  1  2  2  0  0  0
 25 26  1  0  0  0
 27 28  1  0  0  0
 29 30  1  0  0  0
 31 33  2  0  0  0
 21 22  3  0  0  0
 17 20  1  0  0  0
 23 24  1  0  0  0
 32 34  1  0  0  0
M  END
> <minimizedAffinity>
-8.93860

$$$$
CHEMBL585734


 37 40  0  0  0  0  0  0  0  0999 V2000
   10.3964   13.3991  -14.3383 C   0  0  0  0  0  0  0  0  0  0  0  0
    9.4700   13.6668  -13.4562 N   0  0  0  0  0  0  0  0  0  0  0  0
    9.2302   13.9588  -17.8461 C   0  0  0  0  0  0  0  0  0  0  0  0
    9.0466   13.9590  -16.3248 C   0  0  0  0  0  0  0  0  0  0  0  0
   10.1438   11.6877  -16.2109 C   0  0  0  0  0  0  0  0  0  0  0  0
   11.3903   10.9518  -15.6808 C   0  0  0  0  0  0  0  0  0  0  0  0
   10.2714   11.7438  -17.7606 C   0  0  0  0  0  0  0  0  0  0  0  0
    9.2639   12.6013  -18.3868 N   0  0  0  0  0  0  0  0  0  0  0  0
    9.9692   13.0393  -15.6082 N   0  0  0  0  0  0  0  0  0  0  0  0
   10.3139   11.1601  -21.2358 C   0  0  0  0  0  0  0  0  0  0  0  0
    8.8888   10.7853  -21.0358 C   0  0  0  0  0  0  0  0  0  0  0  0
    8.1535    9.9695  -21.8791 C   0  0  0  0  0  0  0  0  0  0  0  0
    6.7592   10.6676  -20.2746 C   0  0  0  0  0  0  0  0  0  0  0  0
    5.7928   11.6652  -18.5550 C   0  0  0  0  0  0  0  0  0  0  0  0
    8.0872   12.0129  -18.8161 C   0  0  0  0  0  0  0  0  0  0  0  0
    8.0050   11.2026  -19.9765 C   0  0  0  0  0  0  0  0  0  0  0  0
    6.8703    9.9120  -21.4075 N   0  0  0  0  0  0  0  0  0  0  0  0
    5.6145   10.8461  -19.6018 N   0  0  0  0  0  0  0  0  0  0  0  0
    6.9343   12.2462  -18.1329 N   0  0  0  0  0  0  0  0  0  0  0  0
    6.0985    9.4185  -21.8315 H   0  0  0  0  0  0  0  0  0  0  0  0
    9.8368   14.0730  -12.2387 C   0  0  0  0  0  0  0  0  0  0  0  0
   10.1731   14.3855  -11.1757 N   0  0  0  0  0  0  0  0  0  0  0  0
   11.7570   13.5218  -14.1280 N   0  0  0  0  0  0  0  0  0  0  0  0
   12.2292   12.7112  -13.7399 H   0  0  0  0  0  0  0  0  0  0  0  0
   12.6681   14.4690  -14.6447 C   0  0  0  0  0  0  0  0  0  0  0  0
   13.1876   15.5197  -13.8857 C   0  0  0  0  0  0  0  0  0  0  0  0
   14.1845   16.3582  -14.3796 C   0  0  0  0  0  0  0  0  0  0  0  0
   14.6586   16.1864  -15.6752 C   0  0  0  0  0  0  0  0  0  0  0  0
   14.1208   15.1843  -16.4896 C   0  0  0  0  0  0  0  0  0  0  0  0
   13.1415   14.3213  -15.9585 C   0  0  0  0  0  0  0  0  0  0  0  0
   14.5506   14.9780  -17.9081 C   0  0  0  0  0  0  0  0  0  0  0  0
   13.6474   15.3028  -18.9032 N   0  0  0  0  0  0  0  0  0  0  0  0
   15.6622   14.5162  -18.1468 O   0  0  0  0  0  0  0  0  0  0  0  0
   12.7144   15.6049  -18.6754 H   0  0  0  0  0  0  0  0  0  0  0  0
   13.9532   15.1084  -20.3133 C   0  0  0  0  0  0  0  0  0  0  0  0
   14.4335   16.4220  -20.9264 C   0  0  0  0  0  0  0  0  0  0  0  0
   12.7292   14.5841  -21.0615 C   0  0  0  0  0  0  0  0  0  0  0  0
 10 11  1  0  0  0
 12 17  1  0  0  0
 14 18  2  0  0  0
 15 19  2  0  0  0
 15  8  1  0  0  0
  3  8  1  0  0  0
  3  4  1  0  0  0
  4  9  1  0  0  0
  1 23  1  0  0  0
 26 27  2  0  0  0
 28 29  2  0  0  0
 29 31  1  0  0  0
 31 32  1  0  0  0
 35 32  1  0  0  0
 35 36  1  0  0  0
 35 37  1  0  0  0
 30 25  2  0  0  0
  5  9  1  0  0  0
  5  6  1  0  0  0
  5  7  1  0  0  0
  7  8  1  0  0  0
 16 11  1  0  0  0
 16 13  2  0  0  0
 17 13  1  0  0  0
  9  1  1  0  0  0
  2 21  1  0  0  0
 23 25  1  0  0  0
 11 12  2  0  0  0
 13 18  1  0  0  0
 14 19  1  0  0  0
 15 16  1  0  0  0
  1  2  2  0  0  0
 25 26  1  0  0  0
 27 28  1  0  0  0
 29 30  1  0  0  0
 31 33  2  0  0  0
 21 22  3  0  0  0
 17 20  1  0  0  0
 23 24  1  0  0  0
 32 34  1  0  0  0
M  END
> <minimizedAffinity>
-8.80281

$$$$
CHEMBL585734


 37 40  0  0  0  0  0  0  0  0999 V2000
    9.6697   11.9936  -18.2807 C   0  0  0  0  0  0  0  0  0  0  0  0
    8.3798   11.8169  -18.1671 N   0  0  0  0  0  0  0  0  0  0  0  0
   10.2521   14.8951  -15.9959 C   0  0  0  0  0  0  0  0  0  0  0  0
   10.2882   14.1957  -17.3588 C   0  0  0  0  0  0  0  0  0  0  0  0
   11.2045   12.1210  -16.2491 C   0  0  0  0  0  0  0  0  0  0  0  0
   10.8694   10.6511  -15.9276 C   0  0  0  0  0  0  0  0  0  0  0  0
   11.1667   12.9026  -14.9043 C   0  0  0  0  0  0  0  0  0  0  0  0
   11.2563   14.3527  -15.0828 N   0  0  0  0  0  0  0  0  0  0  0  0
   10.2964   12.7115  -17.2726 N   0  0  0  0  0  0  0  0  0  0  0  0
   11.3598   15.2609  -11.8485 C   0  0  0  0  0  0  0  0  0  0  0  0
   12.6728   15.6014  -12.4579 C   0  0  0  0  0  0  0  0  0  0  0  0
   13.7393   16.1732  -11.7850 C   0  0  0  0  0  0  0  0  0  0  0  0
   14.3519   15.9840  -13.9285 C   0  0  0  0  0  0  0  0  0  0  0  0
   14.4501   15.6540  -16.1120 C   0  0  0  0  0  0  0  0  0  0  0  0
   12.5097   14.9369  -15.0285 C   0  0  0  0  0  0  0  0  0  0  0  0
   13.0792   15.4381  -13.8310 C   0  0  0  0  0  0  0  0  0  0  0  0
   14.7425   16.4006  -12.6873 N   0  0  0  0  0  0  0  0  0  0  0  0
   15.1002   16.1125  -15.0323 N   0  0  0  0  0  0  0  0  0  0  0  0
   13.2275   15.0881  -16.1741 N   0  0  0  0  0  0  0  0  0  0  0  0
   15.6325   16.8367  -12.4953 H   0  0  0  0  0  0  0  0  0  0  0  0
    7.7461   11.0829  -19.0844 C   0  0  0  0  0  0  0  0  0  0  0  0
    7.2352   10.4398  -19.9006 N   0  0  0  0  0  0  0  0  0  0  0  0
   10.4631   11.4584  -19.2780 N   0  0  0  0  0  0  0  0  0  0  0  0
   10.2964   10.4854  -19.5147 H   0  0  0  0  0  0  0  0  0  0  0  0
   11.2588   12.1104  -20.2455 C   0  0  0  0  0  0  0  0  0  0  0  0
   12.6293   12.3257  -20.0856 C   0  0  0  0  0  0  0  0  0  0  0  0
   13.4137   12.8502  -21.1106 C   0  0  0  0  0  0  0  0  0  0  0  0
   12.8277   13.2138  -22.3178 C   0  0  0  0  0  0  0  0  0  0  0  0
   11.4476   13.0716  -22.4963 C   0  0  0  0  0  0  0  0  0  0  0  0
   10.6778   12.5023  -21.4623 C   0  0  0  0  0  0  0  0  0  0  0  0
   10.7475   13.4894  -23.7510 C   0  0  0  0  0  0  0  0  0  0  0  0
   10.4182   14.8255  -23.8845 N   0  0  0  0  0  0  0  0  0  0  0  0
   10.4706   12.6503  -24.6025 O   0  0  0  0  0  0  0  0  0  0  0  0
   10.5872   15.4766  -23.1353 H   0  0  0  0  0  0  0  0  0  0  0  0
    9.7062   15.3300  -25.0500 C   0  0  0  0  0  0  0  0  0  0  0  0
    9.7603   16.8560  -25.0712 C   0  0  0  0  0  0  0  0  0  0  0  0
    8.2577   14.8454  -25.0465 C   0  0  0  0  0  0  0  0  0  0  0  0
 10 11  1  0  0  0
 12 17  1  0  0  0
 14 18  2  0  0  0
 15 19  2  0  0  0
 15  8  1  0  0  0
  3  8  1  0  0  0
  3  4  1  0  0  0
  4  9  1  0  0  0
  1 23  1  0  0  0
 26 27  2  0  0  0
 28 29  2  0  0  0
 29 31  1  0  0  0
 31 32  1  0  0  0
 35 32  1  0  0  0
 35 36  1  0  0  0
 35 37  1  0  0  0
 30 25  2  0  0  0
  5  9  1  0  0  0
  5  6  1  0  0  0
  5  7  1  0  0  0
  7  8  1  0  0  0
 16 11  1  0  0  0
 16 13  2  0  0  0
 17 13  1  0  0  0
  9  1  1  0  0  0
  2 21  1  0  0  0
 23 25  1  0  0  0
 11 12  2  0  0  0
 13 18  1  0  0  0
 14 19  1  0  0  0
 15 16  1  0  0  0
  1  2  2  0  0  0
 25 26  1  0  0  0
 27 28  1  0  0  0
 29 30  1  0  0  0
 31 33  2  0  0  0
 21 22  3  0  0  0
 17 20  1  0  0  0
 23 24  1  0  0  0
 32 34  1  0  0  0
M  END
> <minimizedAffinity>
-8.60707

$$$$
CHEMBL585734


 37 40  0  0  0  0  0  0  0  0999 V2000
   10.8942   13.6180  -14.6014 C   0  0  0  0  0  0  0  0  0  0  0  0
   10.0246   13.8358  -13.6504 N   0  0  0  0  0  0  0  0  0  0  0  0
    8.8921   11.8927  -17.2459 C   0  0  0  0  0  0  0  0  0  0  0  0
   10.0749   12.0060  -16.2783 C   0  0  0  0  0  0  0  0  0  0  0  0
   10.3851   14.4149  -16.9689 C   0  0  0  0  0  0  0  0  0  0  0  0
   10.3057   15.8622  -16.4443 C   0  0  0  0  0  0  0  0  0  0  0  0
    9.1936   14.2189  -17.9502 C   0  0  0  0  0  0  0  0  0  0  0  0
    9.0165   12.8260  -18.3639 N   0  0  0  0  0  0  0  0  0  0  0  0
   10.3903   13.4021  -15.8758 N   0  0  0  0  0  0  0  0  0  0  0  0
    6.7509   10.6221  -19.5069 C   0  0  0  0  0  0  0  0  0  0  0  0
    7.8392   10.7188  -20.5156 C   0  0  0  0  0  0  0  0  0  0  0  0
    7.8785   10.0270  -21.7144 C   0  0  0  0  0  0  0  0  0  0  0  0
    9.7851   11.1894  -21.5744 C   0  0  0  0  0  0  0  0  0  0  0  0
   11.4947   12.4413  -20.9452 C   0  0  0  0  0  0  0  0  0  0  0  0
    9.6389   12.4107  -19.5280 C   0  0  0  0  0  0  0  0  0  0  0  0
    9.0465   11.5026  -20.4414 C   0  0  0  0  0  0  0  0  0  0  0  0
    9.0603   10.3194  -22.3389 N   0  0  0  0  0  0  0  0  0  0  0  0
   11.0081   11.6310  -21.8966 N   0  0  0  0  0  0  0  0  0  0  0  0
   10.8969   12.8469  -19.8063 N   0  0  0  0  0  0  0  0  0  0  0  0
    9.3836    9.9390  -23.2163 H   0  0  0  0  0  0  0  0  0  0  0  0
   10.4678   14.1055  -12.4205 C   0  0  0  0  0  0  0  0  0  0  0  0
   10.8877   14.3593  -11.3717 N   0  0  0  0  0  0  0  0  0  0  0  0
   12.2675   13.6636  -14.4519 N   0  0  0  0  0  0  0  0  0  0  0  0
   12.7442   12.7702  -14.3804 H   0  0  0  0  0  0  0  0  0  0  0  0
   13.1663   14.7264  -14.6905 C   0  0  0  0  0  0  0  0  0  0  0  0
   13.4158   15.7371  -13.7599 C   0  0  0  0  0  0  0  0  0  0  0  0
   14.4043   16.6968  -13.9667 C   0  0  0  0  0  0  0  0  0  0  0  0
   15.1448   16.6896  -15.1434 C   0  0  0  0  0  0  0  0  0  0  0  0
   14.8838   15.7309  -16.1281 C   0  0  0  0  0  0  0  0  0  0  0  0
   13.9074   14.7448  -15.8832 C   0  0  0  0  0  0  0  0  0  0  0  0
   15.6093   15.6978  -17.4365 C   0  0  0  0  0  0  0  0  0  0  0  0
   16.0031   16.9067  -17.9796 N   0  0  0  0  0  0  0  0  0  0  0  0
   15.8139   14.6233  -17.9926 O   0  0  0  0  0  0  0  0  0  0  0  0
   15.7519   17.7769  -17.5399 H   0  0  0  0  0  0  0  0  0  0  0  0
   16.6845   16.9880  -19.2637 C   0  0  0  0  0  0  0  0  0  0  0  0
   18.0675   17.6087  -19.0792 C   0  0  0  0  0  0  0  0  0  0  0  0
   15.8605   17.8023  -20.2591 C   0  0  0  0  0  0  0  0  0  0  0  0
 10 11  1  0  0  0
 12 17  1  0  0  0
 14 18  2  0  0  0
 15 19  2  0  0  0
 15  8  1  0  0  0
  3  8  1  0  0  0
  3  4  1  0  0  0
  4  9  1  0  0  0
  1 23  1  0  0  0
 26 27  2  0  0  0
 28 29  2  0  0  0
 29 31  1  0  0  0
 31 32  1  0  0  0
 35 32  1  0  0  0
 35 36  1  0  0  0
 35 37  1  0  0  0
 30 25  2  0  0  0
  5  9  1  0  0  0
  5  6  1  0  0  0
  5  7  1  0  0  0
  7  8  1  0  0  0
 16 11  1  0  0  0
 16 13  2  0  0  0
 17 13  1  0  0  0
  9  1  1  0  0  0
  2 21  1  0  0  0
 23 25  1  0  0  0
 11 12  2  0  0  0
 13 18  1  0  0  0
 14 19  1  0  0  0
 15 16  1  0  0  0
  1  2  2  0  0  0
 25 26  1  0  0  0
 27 28  1  0  0  0
 29 30  1  0  0  0
 31 33  2  0  0  0
 21 22  3  0  0  0
 17 20  1  0  0  0
 23 24  1  0  0  0
 32 34  1  0  0  0
M  END
> <minimizedAffinity>
-8.49818

$$$$
CHEMBL585734


 37 40  0  0  0  0  0  0  0  0999 V2000
   10.5398   13.2558  -15.6845 C   0  0  0  0  0  0  0  0  0  0  0  0
    9.2450   13.1553  -15.8305 N   0  0  0  0  0  0  0  0  0  0  0  0
   11.9781   15.0912  -18.6070 C   0  0  0  0  0  0  0  0  0  0  0  0
   10.8355   14.4180  -17.8394 C   0  0  0  0  0  0  0  0  0  0  0  0
   12.3678   12.4886  -17.2874 C   0  0  0  0  0  0  0  0  0  0  0  0
   13.0700   11.7753  -16.1150 C   0  0  0  0  0  0  0  0  0  0  0  0
   13.4724   13.2165  -18.1065 C   0  0  0  0  0  0  0  0  0  0  0  0
   12.9296   14.1122  -19.1291 N   0  0  0  0  0  0  0  0  0  0  0  0
   11.2913   13.4166  -16.8395 N   0  0  0  0  0  0  0  0  0  0  0  0
   14.3985   16.5299  -20.9438 C   0  0  0  0  0  0  0  0  0  0  0  0
   13.9757   15.4539  -21.8789 C   0  0  0  0  0  0  0  0  0  0  0  0
   14.1803   15.4623  -23.2483 C   0  0  0  0  0  0  0  0  0  0  0  0
   13.0209   13.6075  -22.7778 C   0  0  0  0  0  0  0  0  0  0  0  0
   11.8499   11.9908  -21.8285 C   0  0  0  0  0  0  0  0  0  0  0  0
   12.7520   13.6078  -20.4055 C   0  0  0  0  0  0  0  0  0  0  0  0
   13.2663   14.2388  -21.5660 C   0  0  0  0  0  0  0  0  0  0  0  0
   13.5951   14.3434  -23.7755 N   0  0  0  0  0  0  0  0  0  0  0  0
   12.3324   12.4765  -22.9817 N   0  0  0  0  0  0  0  0  0  0  0  0
   12.0143   12.4786  -20.5819 N   0  0  0  0  0  0  0  0  0  0  0  0
   13.5539   14.0936  -24.7528 H   0  0  0  0  0  0  0  0  0  0  0  0
    8.4789   13.0575  -14.7417 C   0  0  0  0  0  0  0  0  0  0  0  0
    7.8449   12.9957  -13.7747 N   0  0  0  0  0  0  0  0  0  0  0  0
   11.2053   13.2928  -14.4736 N   0  0  0  0  0  0  0  0  0  0  0  0
   11.4908   12.3983  -14.0875 H   0  0  0  0  0  0  0  0  0  0  0  0
   11.8347   14.3764  -13.8226 C   0  0  0  0  0  0  0  0  0  0  0  0
   11.4193   14.8658  -12.5825 C   0  0  0  0  0  0  0  0  0  0  0  0
   12.1389   15.8459  -11.9025 C   0  0  0  0  0  0  0  0  0  0  0  0
   13.2809   16.3935  -12.4762 C   0  0  0  0  0  0  0  0  0  0  0  0
   13.6962   15.9746  -13.7445 C   0  0  0  0  0  0  0  0  0  0  0  0
   12.9776   14.9541  -14.3987 C   0  0  0  0  0  0  0  0  0  0  0  0
   14.8863   16.5581  -14.4391 C   0  0  0  0  0  0  0  0  0  0  0  0
   14.9695   16.3958  -15.8096 N   0  0  0  0  0  0  0  0  0  0  0  0
   15.7502   17.1355  -13.7863 O   0  0  0  0  0  0  0  0  0  0  0  0
   14.2861   15.8494  -16.3075 H   0  0  0  0  0  0  0  0  0  0  0  0
   16.1021   16.8950  -16.5762 C   0  0  0  0  0  0  0  0  0  0  0  0
   15.9489   18.3961  -16.8114 C   0  0  0  0  0  0  0  0  0  0  0  0
   16.2195   16.1538  -17.9065 C   0  0  0  0  0  0  0  0  0  0  0  0
 10 11  1  0  0  0
 12 17  1  0  0  0
 14 18  2  0  0  0
 15 19  2  0  0  0
 15  8  1  0  0  0
  3  8  1  0  0  0
  3  4  1  0  0  0
  4  9  1  0  0  0
  1 23  1  0  0  0
 26 27  2  0  0  0
 28 29  2  0  0  0
 29 31  1  0  0  0
 31 32  1  0  0  0
 35 32  1  0  0  0
 35 36  1  0  0  0
 35 37  1  0  0  0
 30 25  2  0  0  0
  5  9  1  0  0  0
  5  6  1  0  0  0
  5  7  1  0  0  0
  7  8  1  0  0  0
 16 11  1  0  0  0
 16 13  2  0  0  0
 17 13  1  0  0  0
  9  1  1  0  0  0
  2 21  1  0  0  0
 23 25  1  0  0  0
 11 12  2  0  0  0
 13 18  1  0  0  0
 14 19  1  0  0  0
 15 16  1  0  0  0
  1  2  2  0  0  0
 25 26  1  0  0  0
 27 28  1  0  0  0
 29 30  1  0  0  0
 31 33  2  0  0  0
 21 22  3  0  0  0
 17 20  1  0  0  0
 23 24  1  0  0  0
 32 34  1  0  0  0
M  END
> <minimizedAffinity>
-7.89693

$$$$
CHEMBL3593766


 30 33  0  0  0  0  0  0  0  0999 V2000
   12.8222   13.2158  -18.5467 C   0  0  0  0  0  0  0  0  0  0  0  0
   13.7323   14.3051  -18.3305 C   0  0  0  0  0  0  0  0  0  0  0  0
   14.1643   15.0707  -19.4144 C   0  0  0  0  0  0  0  0  0  0  0  0
   12.9525   13.8910  -20.8747 C   0  0  0  0  0  0  0  0  0  0  0  0
   12.4295   13.0297  -19.9082 C   0  0  0  0  0  0  0  0  0  0  0  0
   11.5857   12.1424  -20.6476 C   0  0  0  0  0  0  0  0  0  0  0  0
   11.6230   12.4791  -21.9831 C   0  0  0  0  0  0  0  0  0  0  0  0
   13.8045   14.9115  -20.7044 N   0  0  0  0  0  0  0  0  0  0  0  0
   12.4585   13.5477  -22.1026 N   0  0  0  0  0  0  0  0  0  0  0  0
   12.6930   14.0337  -22.9547 H   0  0  0  0  0  0  0  0  0  0  0  0
   14.2300   14.6338  -16.9523 C   0  0  0  0  0  0  0  0  0  0  0  0
   14.4530   15.9394  -16.5980 N   0  0  0  0  0  0  0  0  0  0  0  0
   14.4500   13.7664  -16.1091 O   0  0  0  0  0  0  0  0  0  0  0  0
   14.7874   16.0910  -15.6540 H   0  0  0  0  0  0  0  0  0  0  0  0
   14.3044   16.7582  -17.1650 H   0  0  0  0  0  0  0  0  0  0  0  0
   12.3834   12.4747  -17.4499 N   0  0  0  0  0  0  0  0  0  0  0  0
   13.1265   11.9230  -17.0032 H   0  0  0  0  0  0  0  0  0  0  0  0
   11.0872   12.3724  -16.7865 C   0  0  0  0  0  0  0  0  0  0  0  0
    9.9819   13.0931  -17.5524 C   0  0  0  0  0  0  0  0  0  0  0  0
    8.6758   13.2138  -16.7614 C   0  0  0  0  0  0  0  0  0  0  0  0
    8.8116   13.1625  -15.2321 C   0  0  0  0  0  0  0  0  0  0  0  0
   11.1573   12.6699  -15.2721 C   0  0  0  0  0  0  0  0  0  0  0  0
   10.1283   13.6069  -14.7802 N   0  0  0  0  0  0  0  0  0  0  0  0
   10.2079   13.7608  -13.3172 C   0  0  0  0  0  0  0  0  0  0  0  0
   11.4163   14.5661  -12.8692 C   0  0  0  0  0  0  0  0  0  0  0  0
   11.7810   14.5932  -11.5137 C   0  0  0  0  0  0  0  0  0  0  0  0
   12.8938   15.3223  -11.0843 C   0  0  0  0  0  0  0  0  0  0  0  0
   13.6485   16.0509  -12.0001 C   0  0  0  0  0  0  0  0  0  0  0  0
   13.3000   16.0379  -13.3472 C   0  0  0  0  0  0  0  0  0  0  0  0
   12.2026   15.2889  -13.7794 C   0  0  0  0  0  0  0  0  0  0  0  0
  1 16  1  0  0  0
  2  3  2  0  0  0
  2 11  1  0  0  0
  4  8  2  0  0  0
  5  6  1  0  0  0
  5  1  2  0  0  0
  7  9  1  0  0  0
 11 12  1  0  0  0
 18 16  1  0  0  0
 18 19  1  0  0  0
 19 20  1  0  0  0
 20 21  1  0  0  0
 21 23  1  0  0  0
 22 23  1  0  0  0
 22 18  1  0  0  0
 24 23  1  0  0  0
 24 25  1  0  0  0
 26 27  2  0  0  0
 28 29  2  0  0  0
 30 25  2  0  0  0
  9  4  1  0  0  0
  1  2  1  0  0  0
  3  8  1  0  0  0
  4  5  1  0  0  0
  6  7  2  0  0  0
 11 13  2  0  0  0
 25 26  1  0  0  0
 27 28  1  0  0  0
 29 30  1  0  0  0
  9 10  1  0  0  0
 12 14  1  0  0  0
 12 15  1  0  0  0
 16 17  1  0  0  0
M  END
> <minimizedAffinity>
-9.31670

$$$$
CHEMBL3593766


 30 33  0  0  0  0  0  0  0  0999 V2000
    9.5472   11.6309  -19.8374 C   0  0  0  0  0  0  0  0  0  0  0  0
    8.3626   11.0187  -20.3698 C   0  0  0  0  0  0  0  0  0  0  0  0
    8.2694   10.7686  -21.7395 C   0  0  0  0  0  0  0  0  0  0  0  0
   10.3027   11.6019  -22.1441 C   0  0  0  0  0  0  0  0  0  0  0  0
   10.5542   11.9225  -20.8086 C   0  0  0  0  0  0  0  0  0  0  0  0
   11.8627   12.5000  -20.8262 C   0  0  0  0  0  0  0  0  0  0  0  0
   12.3426   12.5118  -22.1177 C   0  0  0  0  0  0  0  0  0  0  0  0
    9.2082   11.0350  -22.6704 N   0  0  0  0  0  0  0  0  0  0  0  0
   11.3802   11.9587  -22.9066 N   0  0  0  0  0  0  0  0  0  0  0  0
   11.4293   11.8187  -23.9042 H   0  0  0  0  0  0  0  0  0  0  0  0
    7.2176   10.6435  -19.4735 C   0  0  0  0  0  0  0  0  0  0  0  0
    6.7532    9.3535  -19.4593 N   0  0  0  0  0  0  0  0  0  0  0  0
    6.6670   11.4581  -18.7352 O   0  0  0  0  0  0  0  0  0  0  0  0
    5.9798    9.1682  -18.8320 H   0  0  0  0  0  0  0  0  0  0  0  0
    7.1070    8.5730  -19.9882 H   0  0  0  0  0  0  0  0  0  0  0  0
    9.6330   11.8539  -18.4635 N   0  0  0  0  0  0  0  0  0  0  0  0
    8.7207   11.8580  -17.9903 H   0  0  0  0  0  0  0  0  0  0  0  0
   10.7692   12.0311  -17.5644 C   0  0  0  0  0  0  0  0  0  0  0  0
   10.6595   11.1699  -16.3099 C   0  0  0  0  0  0  0  0  0  0  0  0
   11.7021   11.5178  -15.2429 C   0  0  0  0  0  0  0  0  0  0  0  0
   12.2637   12.9465  -15.2958 C   0  0  0  0  0  0  0  0  0  0  0  0
   11.1297   13.5149  -17.3298 C   0  0  0  0  0  0  0  0  0  0  0  0
   11.3290   13.8839  -15.9146 N   0  0  0  0  0  0  0  0  0  0  0  0
   11.7601   15.2871  -15.7887 C   0  0  0  0  0  0  0  0  0  0  0  0
   12.4681   15.5757  -14.4755 C   0  0  0  0  0  0  0  0  0  0  0  0
   13.8012   16.0165  -14.4765 C   0  0  0  0  0  0  0  0  0  0  0  0
   14.4662   16.2942  -13.2786 C   0  0  0  0  0  0  0  0  0  0  0  0
   13.8155   16.1176  -12.0601 C   0  0  0  0  0  0  0  0  0  0  0  0
   12.4953   15.6786  -12.0399 C   0  0  0  0  0  0  0  0  0  0  0  0
   11.8231   15.4253  -13.2383 C   0  0  0  0  0  0  0  0  0  0  0  0
  1 16  1  0  0  0
  2  3  2  0  0  0
  2 11  1  0  0  0
  4  8  2  0  0  0
  5  6  1  0  0  0
  5  1  2  0  0  0
  7  9  1  0  0  0
 11 12  1  0  0  0
 18 16  1  0  0  0
 18 19  1  0  0  0
 19 20  1  0  0  0
 20 21  1  0  0  0
 21 23  1  0  0  0
 22 23  1  0  0  0
 22 18  1  0  0  0
 24 23  1  0  0  0
 24 25  1  0  0  0
 26 27  2  0  0  0
 28 29  2  0  0  0
 30 25  2  0  0  0
  9  4  1  0  0  0
  1  2  1  0  0  0
  3  8  1  0  0  0
  4  5  1  0  0  0
  6  7  2  0  0  0
 11 13  2  0  0  0
 25 26  1  0  0  0
 27 28  1  0  0  0
 29 30  1  0  0  0
  9 10  1  0  0  0
 12 14  1  0  0  0
 12 15  1  0  0  0
 16 17  1  0  0  0
M  END
> <minimizedAffinity>
-9.25755

$$$$
CHEMBL3593766


 30 33  0  0  0  0  0  0  0  0999 V2000
   10.4039   11.4121  -20.5268 C   0  0  0  0  0  0  0  0  0  0  0  0
   11.4606   12.1568  -21.1516 C   0  0  0  0  0  0  0  0  0  0  0  0
   11.4199   12.3946  -22.5260 C   0  0  0  0  0  0  0  0  0  0  0  0
    9.4809   11.3112  -22.7697 C   0  0  0  0  0  0  0  0  0  0  0  0
    9.3711   10.9835  -21.4169 C   0  0  0  0  0  0  0  0  0  0  0  0
    8.1466   10.2493  -21.3313 C   0  0  0  0  0  0  0  0  0  0  0  0
    7.5770   10.1581  -22.5826 C   0  0  0  0  0  0  0  0  0  0  0  0
   10.4546   12.0000  -23.3813 N   0  0  0  0  0  0  0  0  0  0  0  0
    8.4021   10.8126  -23.4458 N   0  0  0  0  0  0  0  0  0  0  0  0
    8.2618   10.9296  -24.4378 H   0  0  0  0  0  0  0  0  0  0  0  0
   12.6139   12.6841  -20.3472 C   0  0  0  0  0  0  0  0  0  0  0  0
   13.8747   12.1844  -20.5488 N   0  0  0  0  0  0  0  0  0  0  0  0
   12.4756   13.5633  -19.4989 O   0  0  0  0  0  0  0  0  0  0  0  0
   14.6065   12.5843  -19.9739 H   0  0  0  0  0  0  0  0  0  0  0  0
   14.1519   11.4810  -21.2138 H   0  0  0  0  0  0  0  0  0  0  0  0
   10.4489   11.2022  -19.1489 N   0  0  0  0  0  0  0  0  0  0  0  0
   11.2406   10.6204  -18.8477 H   0  0  0  0  0  0  0  0  0  0  0  0
    9.6195   11.6908  -18.0515 C   0  0  0  0  0  0  0  0  0  0  0  0
    8.8654   12.9665  -18.4141 C   0  0  0  0  0  0  0  0  0  0  0  0
    8.1892   13.6332  -17.2123 C   0  0  0  0  0  0  0  0  0  0  0  0
    8.8049   13.3226  -15.8397 C   0  0  0  0  0  0  0  0  0  0  0  0
   10.3604   11.7121  -16.6961 C   0  0  0  0  0  0  0  0  0  0  0  0
   10.2197   12.9702  -15.9370 N   0  0  0  0  0  0  0  0  0  0  0  0
   10.8754   12.8712  -14.6213 C   0  0  0  0  0  0  0  0  0  0  0  0
   11.8579   14.0008  -14.3606 C   0  0  0  0  0  0  0  0  0  0  0  0
   12.8216   14.3325  -15.3263 C   0  0  0  0  0  0  0  0  0  0  0  0
   13.7286   15.3734  -15.1071 C   0  0  0  0  0  0  0  0  0  0  0  0
   13.6991   16.0867  -13.9115 C   0  0  0  0  0  0  0  0  0  0  0  0
   12.7528   15.7698  -12.9418 C   0  0  0  0  0  0  0  0  0  0  0  0
   11.8304   14.7459  -13.1718 C   0  0  0  0  0  0  0  0  0  0  0  0
  1 16  1  0  0  0
  2  3  2  0  0  0
  2 11  1  0  0  0
  4  8  2  0  0  0
  5  6  1  0  0  0
  5  1  2  0  0  0
  7  9  1  0  0  0
 11 12  1  0  0  0
 18 16  1  0  0  0
 18 19  1  0  0  0
 19 20  1  0  0  0
 20 21  1  0  0  0
 21 23  1  0  0  0
 22 23  1  0  0  0
 22 18  1  0  0  0
 24 23  1  0  0  0
 24 25  1  0  0  0
 26 27  2  0  0  0
 28 29  2  0  0  0
 30 25  2  0  0  0
  9  4  1  0  0  0
  1  2  1  0  0  0
  3  8  1  0  0  0
  4  5  1  0  0  0
  6  7  2  0  0  0
 11 13  2  0  0  0
 25 26  1  0  0  0
 27 28  1  0  0  0
 29 30  1  0  0  0
  9 10  1  0  0  0
 12 14  1  0  0  0
 12 15  1  0  0  0
 16 17  1  0  0  0
M  END
> <minimizedAffinity>
-9.17569

$$$$
CHEMBL3593766


 30 33  0  0  0  0  0  0  0  0999 V2000
   12.1454   15.1227  -13.7929 C   0  0  0  0  0  0  0  0  0  0  0  0
   13.4511   15.7201  -13.7851 C   0  0  0  0  0  0  0  0  0  0  0  0
   14.1028   15.9416  -12.5711 C   0  0  0  0  0  0  0  0  0  0  0  0
   12.4198   15.0786  -11.3814 C   0  0  0  0  0  0  0  0  0  0  0  0
   11.6336   14.7941  -12.4997 C   0  0  0  0  0  0  0  0  0  0  0  0
   10.4469   14.2097  -11.9556 C   0  0  0  0  0  0  0  0  0  0  0  0
   10.5465   14.1612  -10.5822 C   0  0  0  0  0  0  0  0  0  0  0  0
   13.6374   15.6376  -11.3424 N   0  0  0  0  0  0  0  0  0  0  0  0
   11.7556   14.6924  -10.2503 N   0  0  0  0  0  0  0  0  0  0  0  0
   12.1310   14.7949   -9.3198 H   0  0  0  0  0  0  0  0  0  0  0  0
   14.1282   16.1133  -15.0665 C   0  0  0  0  0  0  0  0  0  0  0  0
   15.0995   17.0810  -15.0588 N   0  0  0  0  0  0  0  0  0  0  0  0
   13.8455   15.5946  -16.1449 O   0  0  0  0  0  0  0  0  0  0  0  0
   15.5157   17.2976  -15.9565 H   0  0  0  0  0  0  0  0  0  0  0  0
   15.4530   17.5828  -14.2605 H   0  0  0  0  0  0  0  0  0  0  0  0
   11.5174   14.8883  -15.0157 N   0  0  0  0  0  0  0  0  0  0  0  0
   11.6344   15.6541  -15.6910 H   0  0  0  0  0  0  0  0  0  0  0  0
   10.7719   13.7463  -15.5361 C   0  0  0  0  0  0  0  0  0  0  0  0
   11.4266   12.4138  -15.1846 C   0  0  0  0  0  0  0  0  0  0  0  0
   10.8091   11.2218  -15.9222 C   0  0  0  0  0  0  0  0  0  0  0  0
   10.1068   11.5461  -17.2494 C   0  0  0  0  0  0  0  0  0  0  0  0
   10.3537   13.9188  -17.0133 C   0  0  0  0  0  0  0  0  0  0  0  0
   10.6399   12.7547  -17.8744 N   0  0  0  0  0  0  0  0  0  0  0  0
   10.1261   12.9660  -19.2390 C   0  0  0  0  0  0  0  0  0  0  0  0
   11.1761   12.7321  -20.3122 C   0  0  0  0  0  0  0  0  0  0  0  0
   12.5302   12.9837  -20.0390 C   0  0  0  0  0  0  0  0  0  0  0  0
   13.5109   12.7671  -21.0114 C   0  0  0  0  0  0  0  0  0  0  0  0
   13.1518   12.3136  -22.2781 C   0  0  0  0  0  0  0  0  0  0  0  0
   11.8142   12.0617  -22.5676 C   0  0  0  0  0  0  0  0  0  0  0  0
   10.8373   12.2545  -21.5875 C   0  0  0  0  0  0  0  0  0  0  0  0
  1 16  1  0  0  0
  2  3  2  0  0  0
  2 11  1  0  0  0
  4  8  2  0  0  0
  5  6  1  0  0  0
  5  1  2  0  0  0
  7  9  1  0  0  0
 11 12  1  0  0  0
 18 16  1  0  0  0
 18 19  1  0  0  0
 19 20  1  0  0  0
 20 21  1  0  0  0
 21 23  1  0  0  0
 22 23  1  0  0  0
 22 18  1  0  0  0
 24 23  1  0  0  0
 24 25  1  0  0  0
 26 27  2  0  0  0
 28 29  2  0  0  0
 30 25  2  0  0  0
  9  4  1  0  0  0
  1  2  1  0  0  0
  3  8  1  0  0  0
  4  5  1  0  0  0
  6  7  2  0  0  0
 11 13  2  0  0  0
 25 26  1  0  0  0
 27 28  1  0  0  0
 29 30  1  0  0  0
  9 10  1  0  0  0
 12 14  1  0  0  0
 12 15  1  0  0  0
 16 17  1  0  0  0
M  END
> <minimizedAffinity>
-8.96064

$$$$
CHEMBL3593766


 30 33  0  0  0  0  0  0  0  0999 V2000
   12.7769   13.6084  -19.2898 C   0  0  0  0  0  0  0  0  0  0  0  0
   12.7698   13.9852  -20.6753 C   0  0  0  0  0  0  0  0  0  0  0  0
   13.6128   15.0049  -21.1189 C   0  0  0  0  0  0  0  0  0  0  0  0
   14.4733   15.3324  -19.0829 C   0  0  0  0  0  0  0  0  0  0  0  0
   13.6953   14.3433  -18.4780 C   0  0  0  0  0  0  0  0  0  0  0  0
   14.0920   14.3752  -17.1042 C   0  0  0  0  0  0  0  0  0  0  0  0
   15.0568   15.3428  -16.9268 C   0  0  0  0  0  0  0  0  0  0  0  0
   14.4861   15.7082  -20.3694 N   0  0  0  0  0  0  0  0  0  0  0  0
   15.2783   15.9138  -18.1430 N   0  0  0  0  0  0  0  0  0  0  0  0
   15.9329   16.6531  -18.3486 H   0  0  0  0  0  0  0  0  0  0  0  0
   11.8653   13.2983  -21.6578 C   0  0  0  0  0  0  0  0  0  0  0  0
   10.9923   14.0352  -22.4159 N   0  0  0  0  0  0  0  0  0  0  0  0
   11.8734   12.0792  -21.8171 O   0  0  0  0  0  0  0  0  0  0  0  0
   10.4119   13.5100  -23.0588 H   0  0  0  0  0  0  0  0  0  0  0  0
   10.8795   15.0359  -22.4150 H   0  0  0  0  0  0  0  0  0  0  0  0
   11.9442   12.5726  -18.8674 N   0  0  0  0  0  0  0  0  0  0  0  0
   12.3467   11.6378  -19.0100 H   0  0  0  0  0  0  0  0  0  0  0  0
   10.6372   12.5637  -18.2174 C   0  0  0  0  0  0  0  0  0  0  0  0
    9.7216   13.6690  -18.7345 C   0  0  0  0  0  0  0  0  0  0  0  0
    8.4467   13.8387  -17.9025 C   0  0  0  0  0  0  0  0  0  0  0  0
    8.5291   13.3598  -16.4453 C   0  0  0  0  0  0  0  0  0  0  0  0
   10.7264   12.4309  -16.6808 C   0  0  0  0  0  0  0  0  0  0  0  0
    9.8962   13.3933  -15.9303 N   0  0  0  0  0  0  0  0  0  0  0  0
    9.9670   13.1368  -14.4812 C   0  0  0  0  0  0  0  0  0  0  0  0
   10.9060   14.0855  -13.7549 C   0  0  0  0  0  0  0  0  0  0  0  0
   11.7592   14.9279  -14.4856 C   0  0  0  0  0  0  0  0  0  0  0  0
   12.6242   15.8124  -13.8348 C   0  0  0  0  0  0  0  0  0  0  0  0
   12.6639   15.8555  -12.4434 C   0  0  0  0  0  0  0  0  0  0  0  0
   11.8276   15.0256  -11.7031 C   0  0  0  0  0  0  0  0  0  0  0  0
   10.9453   14.1597  -12.3542 C   0  0  0  0  0  0  0  0  0  0  0  0
  1 16  1  0  0  0
  2  3  2  0  0  0
  2 11  1  0  0  0
  4  8  2  0  0  0
  5  6  1  0  0  0
  5  1  2  0  0  0
  7  9  1  0  0  0
 11 12  1  0  0  0
 18 16  1  0  0  0
 18 19  1  0  0  0
 19 20  1  0  0  0
 20 21  1  0  0  0
 21 23  1  0  0  0
 22 23  1  0  0  0
 22 18  1  0  0  0
 24 23  1  0  0  0
 24 25  1  0  0  0
 26 27  2  0  0  0
 28 29  2  0  0  0
 30 25  2  0  0  0
  9  4  1  0  0  0
  1  2  1  0  0  0
  3  8  1  0  0  0
  4  5  1  0  0  0
  6  7  2  0  0  0
 11 13  2  0  0  0
 25 26  1  0  0  0
 27 28  1  0  0  0
 29 30  1  0  0  0
  9 10  1  0  0  0
 12 14  1  0  0  0
 12 15  1  0  0  0
 16 17  1  0  0  0
M  END
> <minimizedAffinity>
-8.86512

$$$$
CHEMBL3593766


 30 33  0  0  0  0  0  0  0  0999 V2000
   12.6596   15.0888  -14.0853 C   0  0  0  0  0  0  0  0  0  0  0  0
   13.8881   15.8200  -14.2188 C   0  0  0  0  0  0  0  0  0  0  0  0
   14.5185   16.3261  -13.0814 C   0  0  0  0  0  0  0  0  0  0  0  0
   12.9542   15.5068  -11.7124 C   0  0  0  0  0  0  0  0  0  0  0  0
   12.1981   14.9412  -12.7408 C   0  0  0  0  0  0  0  0  0  0  0  0
   11.0902   14.3344  -12.0698 C   0  0  0  0  0  0  0  0  0  0  0  0
   11.2043   14.5434  -10.7127 C   0  0  0  0  0  0  0  0  0  0  0  0
   14.0997   16.1963  -11.8060 N   0  0  0  0  0  0  0  0  0  0  0  0
   12.3468   15.2570  -10.5131 N   0  0  0  0  0  0  0  0  0  0  0  0
   12.7144   15.5654   -9.6259 H   0  0  0  0  0  0  0  0  0  0  0  0
   14.5065   16.0513  -15.5676 C   0  0  0  0  0  0  0  0  0  0  0  0
   15.1121   17.2493  -15.8469 N   0  0  0  0  0  0  0  0  0  0  0  0
   14.4950   15.1961  -16.4509 O   0  0  0  0  0  0  0  0  0  0  0  0
   15.5094   17.3389  -16.7744 H   0  0  0  0  0  0  0  0  0  0  0  0
   15.2190   18.0366  -15.2282 H   0  0  0  0  0  0  0  0  0  0  0  0
   12.0542   14.5711  -15.2299 N   0  0  0  0  0  0  0  0  0  0  0  0
   12.3602   15.0271  -16.0985 H   0  0  0  0  0  0  0  0  0  0  0  0
   11.1111   13.4759  -15.4345 C   0  0  0  0  0  0  0  0  0  0  0  0
   11.8025   12.1180  -15.5111 C   0  0  0  0  0  0  0  0  0  0  0  0
   10.8736   10.9900  -15.9704 C   0  0  0  0  0  0  0  0  0  0  0  0
    9.6612   11.4203  -16.8097 C   0  0  0  0  0  0  0  0  0  0  0  0
   10.0785   13.7662  -16.5464 C   0  0  0  0  0  0  0  0  0  0  0  0
    9.9008   12.6733  -17.5225 N   0  0  0  0  0  0  0  0  0  0  0  0
    8.8352   12.9936  -18.4882 C   0  0  0  0  0  0  0  0  0  0  0  0
    8.4696   11.8194  -19.3808 C   0  0  0  0  0  0  0  0  0  0  0  0
    7.2717   11.1189  -19.1670 C   0  0  0  0  0  0  0  0  0  0  0  0
    6.9152   10.0411  -19.9828 C   0  0  0  0  0  0  0  0  0  0  0  0
    7.7591    9.6345  -21.0131 C   0  0  0  0  0  0  0  0  0  0  0  0
    8.9518   10.3152  -21.2377 C   0  0  0  0  0  0  0  0  0  0  0  0
    9.2956   11.4081  -20.4380 C   0  0  0  0  0  0  0  0  0  0  0  0
  1 16  1  0  0  0
  2  3  2  0  0  0
  2 11  1  0  0  0
  4  8  2  0  0  0
  5  6  1  0  0  0
  5  1  2  0  0  0
  7  9  1  0  0  0
 11 12  1  0  0  0
 18 16  1  0  0  0
 18 19  1  0  0  0
 19 20  1  0  0  0
 20 21  1  0  0  0
 21 23  1  0  0  0
 22 23  1  0  0  0
 22 18  1  0  0  0
 24 23  1  0  0  0
 24 25  1  0  0  0
 26 27  2  0  0  0
 28 29  2  0  0  0
 30 25  2  0  0  0
  9  4  1  0  0  0
  1  2  1  0  0  0
  3  8  1  0  0  0
  4  5  1  0  0  0
  6  7  2  0  0  0
 11 13  2  0  0  0
 25 26  1  0  0  0
 27 28  1  0  0  0
 29 30  1  0  0  0
  9 10  1  0  0  0
 12 14  1  0  0  0
 12 15  1  0  0  0
 16 17  1  0  0  0
M  END
> <minimizedAffinity>
-8.85013

$$$$
CHEMBL3593766


 30 33  0  0  0  0  0  0  0  0999 V2000
   10.7025   12.2632  -18.1845 C   0  0  0  0  0  0  0  0  0  0  0  0
    9.5324   12.0269  -17.3866 C   0  0  0  0  0  0  0  0  0  0  0  0
    8.3310   11.6811  -18.0066 C   0  0  0  0  0  0  0  0  0  0  0  0
    9.2360   11.7461  -20.0485 C   0  0  0  0  0  0  0  0  0  0  0  0
   10.5062   12.1018  -19.5909 C   0  0  0  0  0  0  0  0  0  0  0  0
   11.2919   12.2075  -20.7814 C   0  0  0  0  0  0  0  0  0  0  0  0
   10.5059   11.9253  -21.8773 C   0  0  0  0  0  0  0  0  0  0  0  0
    8.1266   11.5229  -19.3302 N   0  0  0  0  0  0  0  0  0  0  0  0
    9.2575   11.6441  -21.4119 N   0  0  0  0  0  0  0  0  0  0  0  0
    8.4529   11.3929  -21.9659 H   0  0  0  0  0  0  0  0  0  0  0  0
    9.5805   12.1479  -15.8905 C   0  0  0  0  0  0  0  0  0  0  0  0
    8.5239   12.7007  -15.2139 N   0  0  0  0  0  0  0  0  0  0  0  0
   10.5448   11.7643  -15.2311 O   0  0  0  0  0  0  0  0  0  0  0  0
    8.6208   12.7515  -14.2069 H   0  0  0  0  0  0  0  0  0  0  0  0
    7.6615   13.0426  -15.6057 H   0  0  0  0  0  0  0  0  0  0  0  0
   11.9002   12.5864  -17.5476 N   0  0  0  0  0  0  0  0  0  0  0  0
   12.4063   11.7687  -17.1851 H   0  0  0  0  0  0  0  0  0  0  0  0
   12.5950   13.8537  -17.3427 C   0  0  0  0  0  0  0  0  0  0  0  0
   14.1111   13.6877  -17.3047 C   0  0  0  0  0  0  0  0  0  0  0  0
   14.8478   14.9499  -16.8462 C   0  0  0  0  0  0  0  0  0  0  0  0
   14.0362   15.9197  -15.9741 C   0  0  0  0  0  0  0  0  0  0  0  0
   11.9846   14.7014  -16.2045 C   0  0  0  0  0  0  0  0  0  0  0  0
   12.9668   15.2420  -15.2444 N   0  0  0  0  0  0  0  0  0  0  0  0
   12.3131   16.1118  -14.2510 C   0  0  0  0  0  0  0  0  0  0  0  0
   11.8786   15.3645  -13.0013 C   0  0  0  0  0  0  0  0  0  0  0  0
   12.6692   15.4121  -11.8420 C   0  0  0  0  0  0  0  0  0  0  0  0
   12.2816   14.7372  -10.6807 C   0  0  0  0  0  0  0  0  0  0  0  0
   11.1075   13.9887  -10.6656 C   0  0  0  0  0  0  0  0  0  0  0  0
   10.3130   13.9278  -11.8063 C   0  0  0  0  0  0  0  0  0  0  0  0
   10.6880   14.6229  -12.9588 C   0  0  0  0  0  0  0  0  0  0  0  0
  1 16  1  0  0  0
  2  3  2  0  0  0
  2 11  1  0  0  0
  4  8  2  0  0  0
  5  6  1  0  0  0
  5  1  2  0  0  0
  7  9  1  0  0  0
 11 12  1  0  0  0
 18 16  1  0  0  0
 18 19  1  0  0  0
 19 20  1  0  0  0
 20 21  1  0  0  0
 21 23  1  0  0  0
 22 23  1  0  0  0
 22 18  1  0  0  0
 24 23  1  0  0  0
 24 25  1  0  0  0
 26 27  2  0  0  0
 28 29  2  0  0  0
 30 25  2  0  0  0
  9  4  1  0  0  0
  1  2  1  0  0  0
  3  8  1  0  0  0
  4  5  1  0  0  0
  6  7  2  0  0  0
 11 13  2  0  0  0
 25 26  1  0  0  0
 27 28  1  0  0  0
 29 30  1  0  0  0
  9 10  1  0  0  0
 12 14  1  0  0  0
 12 15  1  0  0  0
 16 17  1  0  0  0
M  END
> <minimizedAffinity>
-8.83091

$$$$
CHEMBL3593766


 30 33  0  0  0  0  0  0  0  0999 V2000
   10.3979   13.0738  -19.3607 C   0  0  0  0  0  0  0  0  0  0  0  0
    9.2854   12.1759  -19.2282 C   0  0  0  0  0  0  0  0  0  0  0  0
    9.0254   11.2440  -20.2339 C   0  0  0  0  0  0  0  0  0  0  0  0
   10.7671   11.9158  -21.4620 C   0  0  0  0  0  0  0  0  0  0  0  0
   11.1612   12.9032  -20.5569 C   0  0  0  0  0  0  0  0  0  0  0  0
   12.3126   13.4966  -21.1635 C   0  0  0  0  0  0  0  0  0  0  0  0
   12.5689   12.8768  -22.3671 C   0  0  0  0  0  0  0  0  0  0  0  0
    9.7339   11.0671  -21.3678 N   0  0  0  0  0  0  0  0  0  0  0  0
   11.6191   11.9150  -22.5314 N   0  0  0  0  0  0  0  0  0  0  0  0
   11.5348   11.2821  -23.3121 H   0  0  0  0  0  0  0  0  0  0  0  0
    8.3930   12.2247  -18.0215 C   0  0  0  0  0  0  0  0  0  0  0  0
    7.0393   12.3782  -18.1765 N   0  0  0  0  0  0  0  0  0  0  0  0
    8.8308   12.1300  -16.8764 O   0  0  0  0  0  0  0  0  0  0  0  0
    6.4958   12.4025  -17.3221 H   0  0  0  0  0  0  0  0  0  0  0  0
    6.5298   12.4511  -19.0421 H   0  0  0  0  0  0  0  0  0  0  0  0
   10.6567   13.9841  -18.3365 N   0  0  0  0  0  0  0  0  0  0  0  0
    9.8088   14.4093  -17.9410 H   0  0  0  0  0  0  0  0  0  0  0  0
   11.8928   14.4089  -17.6866 C   0  0  0  0  0  0  0  0  0  0  0  0
   12.8610   13.2513  -17.4624 C   0  0  0  0  0  0  0  0  0  0  0  0
   14.0480   13.6188  -16.5668 C   0  0  0  0  0  0  0  0  0  0  0  0
   13.8192   14.7885  -15.5977 C   0  0  0  0  0  0  0  0  0  0  0  0
   11.6511   15.3266  -16.4675 C   0  0  0  0  0  0  0  0  0  0  0  0
   12.4080   14.9538  -15.2564 N   0  0  0  0  0  0  0  0  0  0  0  0
   12.1926   15.9313  -14.1753 C   0  0  0  0  0  0  0  0  0  0  0  0
   11.8619   15.2803  -12.8426 C   0  0  0  0  0  0  0  0  0  0  0  0
   10.6592   14.5736  -12.6836 C   0  0  0  0  0  0  0  0  0  0  0  0
   10.3416   13.9618  -11.4674 C   0  0  0  0  0  0  0  0  0  0  0  0
   11.2123   14.0627  -10.3853 C   0  0  0  0  0  0  0  0  0  0  0  0
   12.4074   14.7616  -10.5238 C   0  0  0  0  0  0  0  0  0  0  0  0
   12.7359   15.3516  -11.7470 C   0  0  0  0  0  0  0  0  0  0  0  0
  1 16  1  0  0  0
  2  3  2  0  0  0
  2 11  1  0  0  0
  4  8  2  0  0  0
  5  6  1  0  0  0
  5  1  2  0  0  0
  7  9  1  0  0  0
 11 12  1  0  0  0
 18 16  1  0  0  0
 18 19  1  0  0  0
 19 20  1  0  0  0
 20 21  1  0  0  0
 21 23  1  0  0  0
 22 23  1  0  0  0
 22 18  1  0  0  0
 24 23  1  0  0  0
 24 25  1  0  0  0
 26 27  2  0  0  0
 28 29  2  0  0  0
 30 25  2  0  0  0
  9  4  1  0  0  0
  1  2  1  0  0  0
  3  8  1  0  0  0
  4  5  1  0  0  0
  6  7  2  0  0  0
 11 13  2  0  0  0
 25 26  1  0  0  0
 27 28  1  0  0  0
 29 30  1  0  0  0
  9 10  1  0  0  0
 12 14  1  0  0  0
 12 15  1  0  0  0
 16 17  1  0  0  0
M  END
> <minimizedAffinity>
-8.72065

$$$$
CHEMBL3593766


 30 33  0  0  0  0  0  0  0  0999 V2000
   10.9793   13.1890  -19.5200 C   0  0  0  0  0  0  0  0  0  0  0  0
   11.5868   12.4703  -20.6044 C   0  0  0  0  0  0  0  0  0  0  0  0
   10.9167   11.3893  -21.1788 C   0  0  0  0  0  0  0  0  0  0  0  0
    9.1582   11.6120  -19.8185 C   0  0  0  0  0  0  0  0  0  0  0  0
    9.6909   12.7060  -19.1337 C   0  0  0  0  0  0  0  0  0  0  0  0
    8.6913   13.0350  -18.1650 C   0  0  0  0  0  0  0  0  0  0  0  0
    7.6291   12.1659  -18.2872 C   0  0  0  0  0  0  0  0  0  0  0  0
    9.7016   10.9200  -20.8295 N   0  0  0  0  0  0  0  0  0  0  0  0
    7.9297   11.3077  -19.3008 N   0  0  0  0  0  0  0  0  0  0  0  0
    7.3514   10.5546  -19.6409 H   0  0  0  0  0  0  0  0  0  0  0  0
   12.9370   12.8635  -21.1311 C   0  0  0  0  0  0  0  0  0  0  0  0
   14.0349   12.0940  -20.8436 N   0  0  0  0  0  0  0  0  0  0  0  0
   13.1057   13.8649  -21.8243 O   0  0  0  0  0  0  0  0  0  0  0  0
   14.9142   12.4152  -21.2304 H   0  0  0  0  0  0  0  0  0  0  0  0
   14.0577   11.2412  -20.3085 H   0  0  0  0  0  0  0  0  0  0  0  0
   11.6527   14.2802  -18.9719 N   0  0  0  0  0  0  0  0  0  0  0  0
   11.4216   15.1743  -19.4230 H   0  0  0  0  0  0  0  0  0  0  0  0
   12.5804   14.4026  -17.8515 C   0  0  0  0  0  0  0  0  0  0  0  0
   13.1118   13.0508  -17.3846 C   0  0  0  0  0  0  0  0  0  0  0  0
   13.8847   13.1266  -16.0644 C   0  0  0  0  0  0  0  0  0  0  0  0
   13.5334   14.3095  -15.1494 C   0  0  0  0  0  0  0  0  0  0  0  0
   12.0644   15.3411  -16.7382 C   0  0  0  0  0  0  0  0  0  0  0  0
   12.1726   14.7935  -15.3718 N   0  0  0  0  0  0  0  0  0  0  0  0
   11.7482   15.7853  -14.3684 C   0  0  0  0  0  0  0  0  0  0  0  0
   11.6079   15.1975  -12.9741 C   0  0  0  0  0  0  0  0  0  0  0  0
   10.5006   14.3947  -12.6567 C   0  0  0  0  0  0  0  0  0  0  0  0
   10.3587   13.8392  -11.3817 C   0  0  0  0  0  0  0  0  0  0  0  0
   11.3114   14.0928  -10.3983 C   0  0  0  0  0  0  0  0  0  0  0  0
   12.4139   14.8886  -10.6941 C   0  0  0  0  0  0  0  0  0  0  0  0
   12.5681   15.4229  -11.9759 C   0  0  0  0  0  0  0  0  0  0  0  0
  1 16  1  0  0  0
  2  3  2  0  0  0
  2 11  1  0  0  0
  4  8  2  0  0  0
  5  6  1  0  0  0
  5  1  2  0  0  0
  7  9  1  0  0  0
 11 12  1  0  0  0
 18 16  1  0  0  0
 18 19  1  0  0  0
 19 20  1  0  0  0
 20 21  1  0  0  0
 21 23  1  0  0  0
 22 23  1  0  0  0
 22 18  1  0  0  0
 24 23  1  0  0  0
 24 25  1  0  0  0
 26 27  2  0  0  0
 28 29  2  0  0  0
 30 25  2  0  0  0
  9  4  1  0  0  0
  1  2  1  0  0  0
  3  8  1  0  0  0
  4  5  1  0  0  0
  6  7  2  0  0  0
 11 13  2  0  0  0
 25 26  1  0  0  0
 27 28  1  0  0  0
 29 30  1  0  0  0
  9 10  1  0  0  0
 12 14  1  0  0  0
 12 15  1  0  0  0
 16 17  1  0  0  0
M  END
> <minimizedAffinity>
-8.71960

$$$$
CHEMBL4460419


 34 38  0  0  0  0  0  0  0  0999 V2000
   11.4077   13.7699  -18.5370 C   0  0  0  0  0  0  0  0  0  0  0  0
   12.4162   14.7578  -18.5153 C   0  0  0  0  0  0  0  0  0  0  0  0
   13.4525   14.7700  -19.4635 C   0  0  0  0  0  0  0  0  0  0  0  0
   13.4759   13.7625  -20.4292 C   0  0  0  0  0  0  0  0  0  0  0  0
   12.4935   12.7726  -20.4589 C   0  0  0  0  0  0  0  0  0  0  0  0
   11.4669   12.7756  -19.5216 C   0  0  0  0  0  0  0  0  0  0  0  0
    9.6233   12.3774  -15.5159 C   0  0  0  0  0  0  0  0  0  0  0  0
    9.9458   12.3484  -17.0084 C   0  0  0  0  0  0  0  0  0  0  0  0
   10.2415   13.7610  -17.5533 C   0  0  0  0  0  0  0  0  0  0  0  0
   10.3954   14.8186  -16.4339 C   0  0  0  0  0  0  0  0  0  0  0  0
   10.7914   13.0012  -14.7496 C   0  0  0  0  0  0  0  0  0  0  0  0
   11.1789   14.2859  -15.3149 N   0  0  0  0  0  0  0  0  0  0  0  0
   12.2602   15.0215  -14.8561 C   0  0  0  0  0  0  0  0  0  0  0  0
   14.2620   16.1351  -15.3945 C   0  0  0  0  0  0  0  0  0  0  0  0
   13.7662   15.9658  -13.2519 C   0  0  0  0  0  0  0  0  0  0  0  0
   12.5731   15.2945  -13.4983 C   0  0  0  0  0  0  0  0  0  0  0  0
   12.0118   15.0384  -12.2077 C   0  0  0  0  0  0  0  0  0  0  0  0
   12.8712   15.5318  -11.2487 C   0  0  0  0  0  0  0  0  0  0  0  0
   13.1515   15.4843  -15.7807 N   0  0  0  0  0  0  0  0  0  0  0  0
   14.6546   16.4133  -14.1474 N   0  0  0  0  0  0  0  0  0  0  0  0
   13.9295   16.0998  -11.9014 N   0  0  0  0  0  0  0  0  0  0  0  0
   14.7296   16.5472  -11.4781 H   0  0  0  0  0  0  0  0  0  0  0  0
   15.6215   15.7848  -18.7200 C   0  0  0  0  0  0  0  0  0  0  0  0
   14.4114   15.8146  -19.3983 N   0  0  0  0  0  0  0  0  0  0  0  0
   16.3323   16.9558  -18.8675 N   0  0  0  0  0  0  0  0  0  0  0  0
   16.0209   14.8325  -18.0576 O   0  0  0  0  0  0  0  0  0  0  0  0
   14.1988   16.6472  -19.9272 H   0  0  0  0  0  0  0  0  0  0  0  0
   15.9076   17.7537  -19.3104 H   0  0  0  0  0  0  0  0  0  0  0  0
   17.6185   17.2299  -18.3791 C   0  0  0  0  0  0  0  0  0  0  0  0
   18.7260   17.4629  -19.1881 C   0  0  0  0  0  0  0  0  0  0  0  0
   19.9633   17.7177  -18.5993 C   0  0  0  0  0  0  0  0  0  0  0  0
   20.0655   17.7370  -17.2180 C   0  0  0  0  0  0  0  0  0  0  0  0
   18.9149   17.5078  -16.4837 C   0  0  0  0  0  0  0  0  0  0  0  0
   17.6989   17.2624  -17.0297 N   0  0  0  0  0  0  0  0  0  0  0  0
  7  8  1  0  0  0
  8  9  1  0  0  0
  9 10  1  0  0  0
  9  1  1  0  0  0
 10 12  1  0  0  0
 11 12  1  0  0  0
 11  7  1  0  0  0
 14 19  2  0  0  0
 15 20  2  0  0  0
 16 17  1  0  0  0
 16 13  2  0  0  0
 18 21  1  0  0  0
  2  3  2  0  0  0
  3 24  1  0  0  0
  4  5  2  0  0  0
  6  1  2  0  0  0
 23 25  1  0  0  0
 29 34  2  0  0  0
 30 31  2  0  0  0
 32 33  2  0  0  0
 12 13  1  0  0  0
 21 15  1  0  0  0
 24 23  1  0  0  0
 25 29  1  0  0  0
 13 19  1  0  0  0
 14 20  1  0  0  0
 15 16  1  0  0  0
 17 18  2  0  0  0
  1  2  1  0  0  0
  3  4  1  0  0  0
  5  6  1  0  0  0
 23 26  2  0  0  0
 29 30  1  0  0  0
 31 32  1  0  0  0
 33 34  1  0  0  0
 21 22  1  0  0  0
 24 27  1  0  0  0
 25 28  1  0  0  0
M  END
> <minimizedAffinity>
-10.08422

$$$$
CHEMBL4460419


 34 38  0  0  0  0  0  0  0  0999 V2000
   10.7017   13.3698  -15.3339 C   0  0  0  0  0  0  0  0  0  0  0  0
    9.9155   13.1379  -16.4835 C   0  0  0  0  0  0  0  0  0  0  0  0
    9.8412   11.8675  -17.0783 C   0  0  0  0  0  0  0  0  0  0  0  0
   10.5841   10.8295  -16.5134 C   0  0  0  0  0  0  0  0  0  0  0  0
   11.3743   11.0433  -15.3839 C   0  0  0  0  0  0  0  0  0  0  0  0
   11.4329   12.3024  -14.7976 C   0  0  0  0  0  0  0  0  0  0  0  0
   12.1540   15.7166  -12.7584 C   0  0  0  0  0  0  0  0  0  0  0  0
   11.1870   14.6040  -13.1578 C   0  0  0  0  0  0  0  0  0  0  0  0
   10.7609   14.7250  -14.6355 C   0  0  0  0  0  0  0  0  0  0  0  0
   11.5955   15.7658  -15.4199 C   0  0  0  0  0  0  0  0  0  0  0  0
   13.3862   15.6765  -13.6644 C   0  0  0  0  0  0  0  0  0  0  0  0
   13.0164   15.6662  -15.0727 N   0  0  0  0  0  0  0  0  0  0  0  0
   13.9410   15.5524  -16.0989 C   0  0  0  0  0  0  0  0  0  0  0  0
   14.6648   14.3356  -17.9785 C   0  0  0  0  0  0  0  0  0  0  0  0
   15.9568   15.9950  -17.3130 C   0  0  0  0  0  0  0  0  0  0  0  0
   15.1063   16.3455  -16.2696 C   0  0  0  0  0  0  0  0  0  0  0  0
   15.7384   17.4552  -15.6253 C   0  0  0  0  0  0  0  0  0  0  0  0
   16.9284   17.7188  -16.2705 C   0  0  0  0  0  0  0  0  0  0  0  0
   13.7613   14.5490  -17.0069 N   0  0  0  0  0  0  0  0  0  0  0  0
   15.7992   15.0067  -18.2017 N   0  0  0  0  0  0  0  0  0  0  0  0
   17.0418   16.8263  -17.2997 N   0  0  0  0  0  0  0  0  0  0  0  0
   17.8038   16.7592  -17.9588 H   0  0  0  0  0  0  0  0  0  0  0  0
    9.4142   11.4784  -19.5181 C   0  0  0  0  0  0  0  0  0  0  0  0
    9.0032   11.7038  -18.2121 N   0  0  0  0  0  0  0  0  0  0  0  0
    8.3515   11.3475  -20.3853 N   0  0  0  0  0  0  0  0  0  0  0  0
   10.5865   11.4069  -19.8728 O   0  0  0  0  0  0  0  0  0  0  0  0
    8.0096   11.7226  -18.0374 H   0  0  0  0  0  0  0  0  0  0  0  0
    7.4151   11.5427  -20.0718 H   0  0  0  0  0  0  0  0  0  0  0  0
    8.4106   11.0407  -21.7528 C   0  0  0  0  0  0  0  0  0  0  0  0
    9.3312   11.5945  -22.6367 C   0  0  0  0  0  0  0  0  0  0  0  0
    9.2978   11.2270  -23.9807 C   0  0  0  0  0  0  0  0  0  0  0  0
    8.3490   10.3136  -24.4100 C   0  0  0  0  0  0  0  0  0  0  0  0
    7.4766    9.7993  -23.4666 C   0  0  0  0  0  0  0  0  0  0  0  0
    7.4899   10.1353  -22.1536 N   0  0  0  0  0  0  0  0  0  0  0  0
  7  8  1  0  0  0
  8  9  1  0  0  0
  9 10  1  0  0  0
  9  1  1  0  0  0
 10 12  1  0  0  0
 11 12  1  0  0  0
 11  7  1  0  0  0
 14 19  2  0  0  0
 15 20  2  0  0  0
 16 17  1  0  0  0
 16 13  2  0  0  0
 18 21  1  0  0  0
  2  3  2  0  0  0
  3 24  1  0  0  0
  4  5  2  0  0  0
  6  1  2  0  0  0
 23 25  1  0  0  0
 29 34  2  0  0  0
 30 31  2  0  0  0
 32 33  2  0  0  0
 12 13  1  0  0  0
 21 15  1  0  0  0
 24 23  1  0  0  0
 25 29  1  0  0  0
 13 19  1  0  0  0
 14 20  1  0  0  0
 15 16  1  0  0  0
 17 18  2  0  0  0
  1  2  1  0  0  0
  3  4  1  0  0  0
  5  6  1  0  0  0
 23 26  2  0  0  0
 29 30  1  0  0  0
 31 32  1  0  0  0
 33 34  1  0  0  0
 21 22  1  0  0  0
 24 27  1  0  0  0
 25 28  1  0  0  0
M  END
> <minimizedAffinity>
-9.81257

$$$$
CHEMBL4460419


 34 38  0  0  0  0  0  0  0  0999 V2000
   10.1701   13.7167  -14.8229 C   0  0  0  0  0  0  0  0  0  0  0  0
   11.1085   14.5908  -15.4134 C   0  0  0  0  0  0  0  0  0  0  0  0
   11.9550   15.3954  -14.6329 C   0  0  0  0  0  0  0  0  0  0  0  0
   11.8359   15.3260  -13.2439 C   0  0  0  0  0  0  0  0  0  0  0  0
   10.9071   14.4758  -12.6439 C   0  0  0  0  0  0  0  0  0  0  0  0
   10.0809   13.6767  -13.4257 C   0  0  0  0  0  0  0  0  0  0  0  0
    7.7527   13.0904  -17.6537 C   0  0  0  0  0  0  0  0  0  0  0  0
    8.0477   13.5286  -16.2207 C   0  0  0  0  0  0  0  0  0  0  0  0
    9.2745   12.7931  -15.6429 C   0  0  0  0  0  0  0  0  0  0  0  0
   10.0581   11.9957  -16.7130 C   0  0  0  0  0  0  0  0  0  0  0  0
    8.9790   13.3459  -18.5321 C   0  0  0  0  0  0  0  0  0  0  0  0
   10.1834   12.7676  -17.9532 N   0  0  0  0  0  0  0  0  0  0  0  0
   11.4431   12.9239  -18.5098 C   0  0  0  0  0  0  0  0  0  0  0  0
   13.6632   13.6400  -18.2009 C   0  0  0  0  0  0  0  0  0  0  0  0
   13.0951   13.0207  -20.2403 C   0  0  0  0  0  0  0  0  0  0  0  0
   11.7930   12.7030  -19.8680 C   0  0  0  0  0  0  0  0  0  0  0  0
   11.1571   12.2546  -21.0683 C   0  0  0  0  0  0  0  0  0  0  0  0
   12.0654   12.3333  -22.1030 C   0  0  0  0  0  0  0  0  0  0  0  0
   12.4402   13.3912  -17.7030 N   0  0  0  0  0  0  0  0  0  0  0  0
   14.0778   13.4911  -19.4630 N   0  0  0  0  0  0  0  0  0  0  0  0
   13.2416   12.7938  -21.5803 N   0  0  0  0  0  0  0  0  0  0  0  0
   14.1007   12.9615  -22.0836 H   0  0  0  0  0  0  0  0  0  0  0  0
   14.2477   15.9637  -15.4738 C   0  0  0  0  0  0  0  0  0  0  0  0
   12.8962   16.2242  -15.2977 N   0  0  0  0  0  0  0  0  0  0  0  0
   14.8850   16.9621  -16.1779 N   0  0  0  0  0  0  0  0  0  0  0  0
   14.8214   14.9650  -15.0513 O   0  0  0  0  0  0  0  0  0  0  0  0
   12.5317   17.0708  -15.7083 H   0  0  0  0  0  0  0  0  0  0  0  0
   14.4025   17.8197  -16.3896 H   0  0  0  0  0  0  0  0  0  0  0  0
   16.2250   16.9794  -16.5926 C   0  0  0  0  0  0  0  0  0  0  0  0
   16.6977   16.3303  -17.7286 C   0  0  0  0  0  0  0  0  0  0  0  0
   18.0527   16.4041  -18.0464 C   0  0  0  0  0  0  0  0  0  0  0  0
   18.9029   17.1262  -17.2251 C   0  0  0  0  0  0  0  0  0  0  0  0
   18.3531   17.7532  -16.1206 C   0  0  0  0  0  0  0  0  0  0  0  0
   17.0395   17.7020  -15.7908 N   0  0  0  0  0  0  0  0  0  0  0  0
  7  8  1  0  0  0
  8  9  1  0  0  0
  9 10  1  0  0  0
  9  1  1  0  0  0
 10 12  1  0  0  0
 11 12  1  0  0  0
 11  7  1  0  0  0
 14 19  2  0  0  0
 15 20  2  0  0  0
 16 17  1  0  0  0
 16 13  2  0  0  0
 18 21  1  0  0  0
  2  3  2  0  0  0
  3 24  1  0  0  0
  4  5  2  0  0  0
  6  1  2  0  0  0
 23 25  1  0  0  0
 29 34  2  0  0  0
 30 31  2  0  0  0
 32 33  2  0  0  0
 12 13  1  0  0  0
 21 15  1  0  0  0
 24 23  1  0  0  0
 25 29  1  0  0  0
 13 19  1  0  0  0
 14 20  1  0  0  0
 15 16  1  0  0  0
 17 18  2  0  0  0
  1  2  1  0  0  0
  3  4  1  0  0  0
  5  6  1  0  0  0
 23 26  2  0  0  0
 29 30  1  0  0  0
 31 32  1  0  0  0
 33 34  1  0  0  0
 21 22  1  0  0  0
 24 27  1  0  0  0
 25 28  1  0  0  0
M  END
> <minimizedAffinity>
-9.73123

$$$$
CHEMBL4460419


 34 38  0  0  0  0  0  0  0  0999 V2000
   11.0198   13.7315  -15.2970 C   0  0  0  0  0  0  0  0  0  0  0  0
   10.7927   13.7452  -16.6904 C   0  0  0  0  0  0  0  0  0  0  0  0
   10.6251   12.5558  -17.4187 C   0  0  0  0  0  0  0  0  0  0  0  0
   10.7066   11.3436  -16.7314 C   0  0  0  0  0  0  0  0  0  0  0  0
   10.9409   11.3113  -15.3568 C   0  0  0  0  0  0  0  0  0  0  0  0
   11.0957   12.4948  -14.6441 C   0  0  0  0  0  0  0  0  0  0  0  0
   12.5993   15.7353  -12.5149 C   0  0  0  0  0  0  0  0  0  0  0  0
   11.5727   14.7209  -13.0145 C   0  0  0  0  0  0  0  0  0  0  0  0
   11.1534   15.0075  -14.4712 C   0  0  0  0  0  0  0  0  0  0  0  0
   12.0434   16.0724  -15.1559 C   0  0  0  0  0  0  0  0  0  0  0  0
   13.8271   15.7161  -13.4274 C   0  0  0  0  0  0  0  0  0  0  0  0
   13.4570   15.8624  -14.8280 N   0  0  0  0  0  0  0  0  0  0  0  0
   14.3735   15.7983  -15.8656 C   0  0  0  0  0  0  0  0  0  0  0  0
   15.1404   14.6204  -17.7529 C   0  0  0  0  0  0  0  0  0  0  0  0
   16.3463   16.3501  -17.1054 C   0  0  0  0  0  0  0  0  0  0  0  0
   15.4907   16.6546  -16.0517 C   0  0  0  0  0  0  0  0  0  0  0  0
   16.0683   17.7987  -15.4165 C   0  0  0  0  0  0  0  0  0  0  0  0
   17.2336   18.1269  -16.0768 C   0  0  0  0  0  0  0  0  0  0  0  0
   14.2386   14.7850  -16.7703 N   0  0  0  0  0  0  0  0  0  0  0  0
   16.2328   15.3530  -17.9910 N   0  0  0  0  0  0  0  0  0  0  0  0
   17.3836   17.2403  -17.1064 N   0  0  0  0  0  0  0  0  0  0  0  0
   18.1399   17.2145  -17.7750 H   0  0  0  0  0  0  0  0  0  0  0  0
   11.2988   12.8911  -19.8105 C   0  0  0  0  0  0  0  0  0  0  0  0
   10.3666   12.6506  -18.8112 N   0  0  0  0  0  0  0  0  0  0  0  0
   10.7283   12.9074  -21.0645 N   0  0  0  0  0  0  0  0  0  0  0  0
   12.4955   13.0746  -19.6118 O   0  0  0  0  0  0  0  0  0  0  0  0
    9.4118   12.4947  -19.0980 H   0  0  0  0  0  0  0  0  0  0  0  0
    9.7271   12.8818  -21.1658 H   0  0  0  0  0  0  0  0  0  0  0  0
   11.3922   13.0477  -22.2923 C   0  0  0  0  0  0  0  0  0  0  0  0
   11.9062   11.9836  -23.0263 C   0  0  0  0  0  0  0  0  0  0  0  0
   12.5574   12.2344  -24.2328 C   0  0  0  0  0  0  0  0  0  0  0  0
   12.6773   13.5401  -24.6796 C   0  0  0  0  0  0  0  0  0  0  0  0
   12.1284   14.5415  -23.8976 C   0  0  0  0  0  0  0  0  0  0  0  0
   11.4863   14.3258  -22.7236 N   0  0  0  0  0  0  0  0  0  0  0  0
  7  8  1  0  0  0
  8  9  1  0  0  0
  9 10  1  0  0  0
  9  1  1  0  0  0
 10 12  1  0  0  0
 11 12  1  0  0  0
 11  7  1  0  0  0
 14 19  2  0  0  0
 15 20  2  0  0  0
 16 17  1  0  0  0
 16 13  2  0  0  0
 18 21  1  0  0  0
  2  3  2  0  0  0
  3 24  1  0  0  0
  4  5  2  0  0  0
  6  1  2  0  0  0
 23 25  1  0  0  0
 29 34  2  0  0  0
 30 31  2  0  0  0
 32 33  2  0  0  0
 12 13  1  0  0  0
 21 15  1  0  0  0
 24 23  1  0  0  0
 25 29  1  0  0  0
 13 19  1  0  0  0
 14 20  1  0  0  0
 15 16  1  0  0  0
 17 18  2  0  0  0
  1  2  1  0  0  0
  3  4  1  0  0  0
  5  6  1  0  0  0
 23 26  2  0  0  0
 29 30  1  0  0  0
 31 32  1  0  0  0
 33 34  1  0  0  0
 21 22  1  0  0  0
 24 27  1  0  0  0
 25 28  1  0  0  0
M  END
> <minimizedAffinity>
-9.51098

$$$$
CHEMBL4460419


 34 38  0  0  0  0  0  0  0  0999 V2000
    9.5060   11.9864  -19.7287 C   0  0  0  0  0  0  0  0  0  0  0  0
   10.1201   13.0051  -18.9681 C   0  0  0  0  0  0  0  0  0  0  0  0
    9.4551   13.6235  -17.8964 C   0  0  0  0  0  0  0  0  0  0  0  0
    8.1514   13.2180  -17.6059 C   0  0  0  0  0  0  0  0  0  0  0  0
    7.5257   12.2204  -18.3537 C   0  0  0  0  0  0  0  0  0  0  0  0
    8.1966   11.6084  -19.4061 C   0  0  0  0  0  0  0  0  0  0  0  0
   10.2741   11.4952  -23.3918 C   0  0  0  0  0  0  0  0  0  0  0  0
    9.3951   11.2528  -22.1667 C   0  0  0  0  0  0  0  0  0  0  0  0
   10.2215   11.2605  -20.8641 C   0  0  0  0  0  0  0  0  0  0  0  0
   11.6712   11.7601  -21.0733 C   0  0  0  0  0  0  0  0  0  0  0  0
   11.0062   12.8304  -23.2432 C   0  0  0  0  0  0  0  0  0  0  0  0
   11.7005   12.9223  -21.9666 N   0  0  0  0  0  0  0  0  0  0  0  0
   12.3745   14.0593  -21.5499 C   0  0  0  0  0  0  0  0  0  0  0  0
   13.1432   16.2133  -22.1035 C   0  0  0  0  0  0  0  0  0  0  0  0
   13.7674   15.4098  -20.1464 C   0  0  0  0  0  0  0  0  0  0  0  0
   13.0684   14.2199  -20.3216 C   0  0  0  0  0  0  0  0  0  0  0  0
   13.3169   13.4593  -19.1358 C   0  0  0  0  0  0  0  0  0  0  0  0
   14.1521   14.1865  -18.3140 C   0  0  0  0  0  0  0  0  0  0  0  0
   12.4377   15.1131  -22.4154 N   0  0  0  0  0  0  0  0  0  0  0  0
   13.8480   16.4446  -20.9913 N   0  0  0  0  0  0  0  0  0  0  0  0
   14.4099   15.3738  -18.9405 N   0  0  0  0  0  0  0  0  0  0  0  0
   14.9911   16.1240  -18.5958 H   0  0  0  0  0  0  0  0  0  0  0  0
   10.8650   14.4235  -15.9836 C   0  0  0  0  0  0  0  0  0  0  0  0
   10.1495   14.6161  -17.1568 N   0  0  0  0  0  0  0  0  0  0  0  0
   11.4373   15.5892  -15.5230 N   0  0  0  0  0  0  0  0  0  0  0  0
   10.9780   13.3447  -15.4105 O   0  0  0  0  0  0  0  0  0  0  0  0
   10.1441   15.5467  -17.5470 H   0  0  0  0  0  0  0  0  0  0  0  0
   11.2095   16.4699  -15.9540 H   0  0  0  0  0  0  0  0  0  0  0  0
   12.2821   15.7335  -14.4125 C   0  0  0  0  0  0  0  0  0  0  0  0
   11.8738   15.5570  -13.0944 C   0  0  0  0  0  0  0  0  0  0  0  0
   12.7937   15.7336  -12.0624 C   0  0  0  0  0  0  0  0  0  0  0  0
   14.0994   16.0787  -12.3702 C   0  0  0  0  0  0  0  0  0  0  0  0
   14.4296   16.2238  -13.7064 C   0  0  0  0  0  0  0  0  0  0  0  0
   13.5571   16.0536  -14.7295 N   0  0  0  0  0  0  0  0  0  0  0  0
  7  8  1  0  0  0
  8  9  1  0  0  0
  9 10  1  0  0  0
  9  1  1  0  0  0
 10 12  1  0  0  0
 11 12  1  0  0  0
 11  7  1  0  0  0
 14 19  2  0  0  0
 15 20  2  0  0  0
 16 17  1  0  0  0
 16 13  2  0  0  0
 18 21  1  0  0  0
  2  3  2  0  0  0
  3 24  1  0  0  0
  4  5  2  0  0  0
  6  1  2  0  0  0
 23 25  1  0  0  0
 29 34  2  0  0  0
 30 31  2  0  0  0
 32 33  2  0  0  0
 12 13  1  0  0  0
 21 15  1  0  0  0
 24 23  1  0  0  0
 25 29  1  0  0  0
 13 19  1  0  0  0
 14 20  1  0  0  0
 15 16  1  0  0  0
 17 18  2  0  0  0
  1  2  1  0  0  0
  3  4  1  0  0  0
  5  6  1  0  0  0
 23 26  2  0  0  0
 29 30  1  0  0  0
 31 32  1  0  0  0
 33 34  1  0  0  0
 21 22  1  0  0  0
 24 27  1  0  0  0
 25 28  1  0  0  0
M  END
> <minimizedAffinity>
-9.50707

$$$$
CHEMBL4460419


 34 38  0  0  0  0  0  0  0  0999 V2000
   12.0797   14.5161  -13.5293 C   0  0  0  0  0  0  0  0  0  0  0  0
   12.9470   15.1570  -14.4405 C   0  0  0  0  0  0  0  0  0  0  0  0
   13.8231   16.1748  -14.0284 C   0  0  0  0  0  0  0  0  0  0  0  0
   13.8059   16.5574  -12.6861 C   0  0  0  0  0  0  0  0  0  0  0  0
   12.9480   15.9422  -11.7744 C   0  0  0  0  0  0  0  0  0  0  0  0
   12.0920   14.9293  -12.1911 C   0  0  0  0  0  0  0  0  0  0  0  0
    9.0328   13.1865  -15.3177 C   0  0  0  0  0  0  0  0  0  0  0  0
    9.6921   13.8329  -14.1013 C   0  0  0  0  0  0  0  0  0  0  0  0
   11.1553   13.3726  -13.9365 C   0  0  0  0  0  0  0  0  0  0  0  0
   11.6810   12.5861  -15.1613 C   0  0  0  0  0  0  0  0  0  0  0  0
    9.8337   13.5244  -16.5767 C   0  0  0  0  0  0  0  0  0  0  0  0
   11.2470   13.2149  -16.4126 N   0  0  0  0  0  0  0  0  0  0  0  0
   12.2026   13.4990  -17.3754 C   0  0  0  0  0  0  0  0  0  0  0  0
   14.2731   14.5037  -17.8662 C   0  0  0  0  0  0  0  0  0  0  0  0
   13.1245   13.7123  -19.5750 C   0  0  0  0  0  0  0  0  0  0  0  0
   12.0877   13.2533  -18.7691 C   0  0  0  0  0  0  0  0  0  0  0  0
   11.1431   12.6665  -19.6689 C   0  0  0  0  0  0  0  0  0  0  0  0
   11.6177   12.8046  -20.9563 C   0  0  0  0  0  0  0  0  0  0  0  0
   13.3438   14.1294  -16.9707 N   0  0  0  0  0  0  0  0  0  0  0  0
   14.2417   14.3425  -19.1929 N   0  0  0  0  0  0  0  0  0  0  0  0
   12.8278   13.4359  -20.8803 N   0  0  0  0  0  0  0  0  0  0  0  0
   13.4284   13.6838  -21.6532 H   0  0  0  0  0  0  0  0  0  0  0  0
   15.9979   17.1625  -14.7908 C   0  0  0  0  0  0  0  0  0  0  0  0
   14.6893   16.7488  -14.9953 N   0  0  0  0  0  0  0  0  0  0  0  0
   16.5732   17.6631  -15.9383 N   0  0  0  0  0  0  0  0  0  0  0  0
   16.5842   17.0993  -13.7149 O   0  0  0  0  0  0  0  0  0  0  0  0
   14.3196   16.8316  -15.9305 H   0  0  0  0  0  0  0  0  0  0  0  0
   16.0133   17.8148  -16.7609 H   0  0  0  0  0  0  0  0  0  0  0  0
   17.8981   18.0949  -16.0993 C   0  0  0  0  0  0  0  0  0  0  0  0
   18.9238   17.2955  -16.5937 C   0  0  0  0  0  0  0  0  0  0  0  0
   20.2096   17.8216  -16.7055 C   0  0  0  0  0  0  0  0  0  0  0  0
   20.4407   19.1331  -16.3244 C   0  0  0  0  0  0  0  0  0  0  0  0
   19.3653   19.8663  -15.8540 C   0  0  0  0  0  0  0  0  0  0  0  0
   18.1047   19.3819  -15.7395 N   0  0  0  0  0  0  0  0  0  0  0  0
  7  8  1  0  0  0
  8  9  1  0  0  0
  9 10  1  0  0  0
  9  1  1  0  0  0
 10 12  1  0  0  0
 11 12  1  0  0  0
 11  7  1  0  0  0
 14 19  2  0  0  0
 15 20  2  0  0  0
 16 17  1  0  0  0
 16 13  2  0  0  0
 18 21  1  0  0  0
  2  3  2  0  0  0
  3 24  1  0  0  0
  4  5  2  0  0  0
  6  1  2  0  0  0
 23 25  1  0  0  0
 29 34  2  0  0  0
 30 31  2  0  0  0
 32 33  2  0  0  0
 12 13  1  0  0  0
 21 15  1  0  0  0
 24 23  1  0  0  0
 25 29  1  0  0  0
 13 19  1  0  0  0
 14 20  1  0  0  0
 15 16  1  0  0  0
 17 18  2  0  0  0
  1  2  1  0  0  0
  3  4  1  0  0  0
  5  6  1  0  0  0
 23 26  2  0  0  0
 29 30  1  0  0  0
 31 32  1  0  0  0
 33 34  1  0  0  0
 21 22  1  0  0  0
 24 27  1  0  0  0
 25 28  1  0  0  0
M  END
> <minimizedAffinity>
-9.50342

$$$$
CHEMBL4460419


 34 38  0  0  0  0  0  0  0  0999 V2000
   11.4537   13.5430  -21.2784 C   0  0  0  0  0  0  0  0  0  0  0  0
   11.1443   14.1092  -20.0226 C   0  0  0  0  0  0  0  0  0  0  0  0
   10.5411   13.3525  -19.0045 C   0  0  0  0  0  0  0  0  0  0  0  0
   10.2332   12.0168  -19.2687 C   0  0  0  0  0  0  0  0  0  0  0  0
   10.5223   11.4442  -20.5073 C   0  0  0  0  0  0  0  0  0  0  0  0
   11.1282   12.1997  -21.5045 C   0  0  0  0  0  0  0  0  0  0  0  0
   12.3403   16.7797  -23.0068 C   0  0  0  0  0  0  0  0  0  0  0  0
   11.3904   15.6072  -22.7715 C   0  0  0  0  0  0  0  0  0  0  0  0
   12.1558   14.3249  -22.3845 C   0  0  0  0  0  0  0  0  0  0  0  0
   13.6501   14.5848  -22.0770 C   0  0  0  0  0  0  0  0  0  0  0  0
   13.1741   17.0264  -21.7480 C   0  0  0  0  0  0  0  0  0  0  0  0
   13.8162   15.8055  -21.2820 N   0  0  0  0  0  0  0  0  0  0  0  0
   14.5637   15.7387  -20.1168 C   0  0  0  0  0  0  0  0  0  0  0  0
   14.8161   14.7741  -17.9854 C   0  0  0  0  0  0  0  0  0  0  0  0
   16.2093   16.4021  -18.5089 C   0  0  0  0  0  0  0  0  0  0  0  0
   15.6641   16.5695  -19.7776 C   0  0  0  0  0  0  0  0  0  0  0  0
   16.4157   17.6307  -20.3734 C   0  0  0  0  0  0  0  0  0  0  0  0
   17.3520   18.0719  -19.4620 C   0  0  0  0  0  0  0  0  0  0  0  0
   14.1823   14.8335  -19.1688 N   0  0  0  0  0  0  0  0  0  0  0  0
   15.8370   15.5283  -17.5660 N   0  0  0  0  0  0  0  0  0  0  0  0
   17.2178   17.3084  -18.3361 N   0  0  0  0  0  0  0  0  0  0  0  0
   17.7585   17.3857  -17.4868 H   0  0  0  0  0  0  0  0  0  0  0  0
   11.0809   13.9038  -16.6188 C   0  0  0  0  0  0  0  0  0  0  0  0
   10.2910   13.9817  -17.7570 N   0  0  0  0  0  0  0  0  0  0  0  0
   10.5692   14.6445  -15.5758 N   0  0  0  0  0  0  0  0  0  0  0  0
   12.1156   13.2495  -16.5373 O   0  0  0  0  0  0  0  0  0  0  0  0
    9.4714   14.5685  -17.7111 H   0  0  0  0  0  0  0  0  0  0  0  0
    9.6540   15.0572  -15.6489 H   0  0  0  0  0  0  0  0  0  0  0  0
   11.1528   14.8436  -14.3158 C   0  0  0  0  0  0  0  0  0  0  0  0
   12.3045   15.5935  -14.1000 C   0  0  0  0  0  0  0  0  0  0  0  0
   12.8069   15.7212  -12.8063 C   0  0  0  0  0  0  0  0  0  0  0  0
   12.1467   15.1006  -11.7586 C   0  0  0  0  0  0  0  0  0  0  0  0
   11.0009   14.3828  -12.0541 C   0  0  0  0  0  0  0  0  0  0  0  0
   10.4879   14.2462  -13.3012 N   0  0  0  0  0  0  0  0  0  0  0  0
  7  8  1  0  0  0
  8  9  1  0  0  0
  9 10  1  0  0  0
  9  1  1  0  0  0
 10 12  1  0  0  0
 11 12  1  0  0  0
 11  7  1  0  0  0
 14 19  2  0  0  0
 15 20  2  0  0  0
 16 17  1  0  0  0
 16 13  2  0  0  0
 18 21  1  0  0  0
  2  3  2  0  0  0
  3 24  1  0  0  0
  4  5  2  0  0  0
  6  1  2  0  0  0
 23 25  1  0  0  0
 29 34  2  0  0  0
 30 31  2  0  0  0
 32 33  2  0  0  0
 12 13  1  0  0  0
 21 15  1  0  0  0
 24 23  1  0  0  0
 25 29  1  0  0  0
 13 19  1  0  0  0
 14 20  1  0  0  0
 15 16  1  0  0  0
 17 18  2  0  0  0
  1  2  1  0  0  0
  3  4  1  0  0  0
  5  6  1  0  0  0
 23 26  2  0  0  0
 29 30  1  0  0  0
 31 32  1  0  0  0
 33 34  1  0  0  0
 21 22  1  0  0  0
 24 27  1  0  0  0
 25 28  1  0  0  0
M  END
> <minimizedAffinity>
-9.16762

$$$$
CHEMBL4460419


 34 38  0  0  0  0  0  0  0  0999 V2000
    9.6504   12.0464  -19.8175 C   0  0  0  0  0  0  0  0  0  0  0  0
   10.3347   13.0364  -19.0793 C   0  0  0  0  0  0  0  0  0  0  0  0
    9.7468   13.6602  -17.9665 C   0  0  0  0  0  0  0  0  0  0  0  0
    8.4488   13.2897  -17.6112 C   0  0  0  0  0  0  0  0  0  0  0  0
    7.7541   12.3211  -18.3356 C   0  0  0  0  0  0  0  0  0  0  0  0
    8.3491   11.7032  -19.4295 C   0  0  0  0  0  0  0  0  0  0  0  0
    9.9854   11.3842  -23.5188 C   0  0  0  0  0  0  0  0  0  0  0  0
    9.2997   11.1451  -22.1753 C   0  0  0  0  0  0  0  0  0  0  0  0
   10.2820   11.3146  -20.9979 C   0  0  0  0  0  0  0  0  0  0  0  0
   11.6362   11.9288  -21.4268 C   0  0  0  0  0  0  0  0  0  0  0  0
   10.5950   12.7873  -23.5422 C   0  0  0  0  0  0  0  0  0  0  0  0
   11.4352   13.0267  -22.3775 N   0  0  0  0  0  0  0  0  0  0  0  0
   12.0416   14.2455  -22.1171 C   0  0  0  0  0  0  0  0  0  0  0  0
   13.6618   15.4204  -20.8795 C   0  0  0  0  0  0  0  0  0  0  0  0
   12.3288   16.6223  -22.1618 C   0  0  0  0  0  0  0  0  0  0  0  0
   11.6451   15.5069  -22.6344 C   0  0  0  0  0  0  0  0  0  0  0  0
   10.6587   16.0229  -23.5328 C   0  0  0  0  0  0  0  0  0  0  0  0
   10.7625   17.3978  -23.5572 C   0  0  0  0  0  0  0  0  0  0  0  0
   13.0833   14.2608  -21.2350 N   0  0  0  0  0  0  0  0  0  0  0  0
   13.3423   16.6525  -21.2882 N   0  0  0  0  0  0  0  0  0  0  0  0
   11.7887   17.7452  -22.7236 N   0  0  0  0  0  0  0  0  0  0  0  0
   12.1138   18.6801  -22.5242 H   0  0  0  0  0  0  0  0  0  0  0  0
   11.0384   14.4781  -15.9791 C   0  0  0  0  0  0  0  0  0  0  0  0
   10.5094   14.6220  -17.2538 N   0  0  0  0  0  0  0  0  0  0  0  0
   11.7439   15.5912  -15.5772 N   0  0  0  0  0  0  0  0  0  0  0  0
   10.8963   13.4807  -15.2788 O   0  0  0  0  0  0  0  0  0  0  0  0
   10.7097   15.4818  -17.7426 H   0  0  0  0  0  0  0  0  0  0  0  0
   11.7229   16.4314  -16.1312 H   0  0  0  0  0  0  0  0  0  0  0  0
   12.4645   15.7486  -14.3840 C   0  0  0  0  0  0  0  0  0  0  0  0
   11.9309   15.5345  -13.1172 C   0  0  0  0  0  0  0  0  0  0  0  0
   12.7329   15.7282  -11.9939 C   0  0  0  0  0  0  0  0  0  0  0  0
   14.0486   16.1277  -12.1613 C   0  0  0  0  0  0  0  0  0  0  0  0
   14.5076   16.3078  -13.4545 C   0  0  0  0  0  0  0  0  0  0  0  0
   13.7516   16.1220  -14.5640 N   0  0  0  0  0  0  0  0  0  0  0  0
  7  8  1  0  0  0
  8  9  1  0  0  0
  9 10  1  0  0  0
  9  1  1  0  0  0
 10 12  1  0  0  0
 11 12  1  0  0  0
 11  7  1  0  0  0
 14 19  2  0  0  0
 15 20  2  0  0  0
 16 17  1  0  0  0
 16 13  2  0  0  0
 18 21  1  0  0  0
  2  3  2  0  0  0
  3 24  1  0  0  0
  4  5  2  0  0  0
  6  1  2  0  0  0
 23 25  1  0  0  0
 29 34  2  0  0  0
 30 31  2  0  0  0
 32 33  2  0  0  0
 12 13  1  0  0  0
 21 15  1  0  0  0
 24 23  1  0  0  0
 25 29  1  0  0  0
 13 19  1  0  0  0
 14 20  1  0  0  0
 15 16  1  0  0  0
 17 18  2  0  0  0
  1  2  1  0  0  0
  3  4  1  0  0  0
  5  6  1  0  0  0
 23 26  2  0  0  0
 29 30  1  0  0  0
 31 32  1  0  0  0
 33 34  1  0  0  0
 21 22  1  0  0  0
 24 27  1  0  0  0
 25 28  1  0  0  0
M  END
> <minimizedAffinity>
-9.05471

$$$$
CHEMBL4460419


 34 38  0  0  0  0  0  0  0  0999 V2000
   12.3166   14.0945  -14.7835 C   0  0  0  0  0  0  0  0  0  0  0  0
   13.2954   14.2663  -15.7864 C   0  0  0  0  0  0  0  0  0  0  0  0
   14.2618   15.2822  -15.7029 C   0  0  0  0  0  0  0  0  0  0  0  0
   14.2236   16.1411  -14.6031 C   0  0  0  0  0  0  0  0  0  0  0  0
   13.2571   15.9923  -13.6084 C   0  0  0  0  0  0  0  0  0  0  0  0
   12.3113   14.9774  -13.6963 C   0  0  0  0  0  0  0  0  0  0  0  0
    8.7988   12.8282  -15.3044 C   0  0  0  0  0  0  0  0  0  0  0  0
    9.8776   13.4509  -14.4208 C   0  0  0  0  0  0  0  0  0  0  0  0
   11.2875   12.9687  -14.8205 C   0  0  0  0  0  0  0  0  0  0  0  0
   11.3012   12.1898  -16.1578 C   0  0  0  0  0  0  0  0  0  0  0  0
    9.0740   13.1702  -16.7700 C   0  0  0  0  0  0  0  0  0  0  0  0
   10.4400   12.8395  -17.1507 N   0  0  0  0  0  0  0  0  0  0  0  0
   10.9688   13.1222  -18.4002 C   0  0  0  0  0  0  0  0  0  0  0  0
   12.3568   14.5209  -19.6865 C   0  0  0  0  0  0  0  0  0  0  0  0
   11.1966   12.9969  -20.7805 C   0  0  0  0  0  0  0  0  0  0  0  0
   10.6199   12.4878  -19.6216 C   0  0  0  0  0  0  0  0  0  0  0  0
    9.7638   11.4293  -20.0608 C   0  0  0  0  0  0  0  0  0  0  0  0
    9.8337   11.3490  -21.4357 C   0  0  0  0  0  0  0  0  0  0  0  0
   11.8680   14.1452  -18.4924 N   0  0  0  0  0  0  0  0  0  0  0  0
   12.0688   14.0065  -20.8862 N   0  0  0  0  0  0  0  0  0  0  0  0
   10.7160   12.3046  -21.8566 N   0  0  0  0  0  0  0  0  0  0  0  0
   10.9832   12.5007  -22.8104 H   0  0  0  0  0  0  0  0  0  0  0  0
   16.0004   16.4836  -17.0521 C   0  0  0  0  0  0  0  0  0  0  0  0
   15.2345   15.3716  -16.7327 N   0  0  0  0  0  0  0  0  0  0  0  0
   16.8664   16.2396  -18.0957 N   0  0  0  0  0  0  0  0  0  0  0  0
   15.9209   17.5666  -16.4812 O   0  0  0  0  0  0  0  0  0  0  0  0
   15.4026   14.5279  -17.2602 H   0  0  0  0  0  0  0  0  0  0  0  0
   16.8037   15.3797  -18.6153 H   0  0  0  0  0  0  0  0  0  0  0  0
   17.8283   17.1174  -18.6174 C   0  0  0  0  0  0  0  0  0  0  0  0
   17.6116   17.9511  -19.7098 C   0  0  0  0  0  0  0  0  0  0  0  0
   18.6401   18.7802  -20.1539 C   0  0  0  0  0  0  0  0  0  0  0  0
   19.8588   18.7601  -19.4958 C   0  0  0  0  0  0  0  0  0  0  0  0
   19.9908   17.9118  -18.4102 C   0  0  0  0  0  0  0  0  0  0  0  0
   19.0066   17.0991  -17.9543 N   0  0  0  0  0  0  0  0  0  0  0  0
  7  8  1  0  0  0
  8  9  1  0  0  0
  9 10  1  0  0  0
  9  1  1  0  0  0
 10 12  1  0  0  0
 11 12  1  0  0  0
 11  7  1  0  0  0
 14 19  2  0  0  0
 15 20  2  0  0  0
 16 17  1  0  0  0
 16 13  2  0  0  0
 18 21  1  0  0  0
  2  3  2  0  0  0
  3 24  1  0  0  0
  4  5  2  0  0  0
  6  1  2  0  0  0
 23 25  1  0  0  0
 29 34  2  0  0  0
 30 31  2  0  0  0
 32 33  2  0  0  0
 12 13  1  0  0  0
 21 15  1  0  0  0
 24 23  1  0  0  0
 25 29  1  0  0  0
 13 19  1  0  0  0
 14 20  1  0  0  0
 15 16  1  0  0  0
 17 18  2  0  0  0
  1  2  1  0  0  0
  3  4  1  0  0  0
  5  6  1  0  0  0
 23 26  2  0  0  0
 29 30  1  0  0  0
 31 32  1  0  0  0
 33 34  1  0  0  0
 21 22  1  0  0  0
 24 27  1  0  0  0
 25 28  1  0  0  0
M  END
> <minimizedAffinity>
-9.04099

$$$$
CHEMBL78377


 29 32  0  0  0  0  0  0  0  0999 V2000
   18.2207   18.7983  -15.3730 C   0  0  0  0  0  0  0  0  0  0  0  0
   17.0116   17.9353  -15.3347 C   0  0  0  0  0  0  0  0  0  0  0  0
   15.2690   16.8914  -14.3788 C   0  0  0  0  0  0  0  0  0  0  0  0
   13.4465   15.7056  -13.8924 C   0  0  0  0  0  0  0  0  0  0  0  0
   14.1199   15.8032  -16.1434 C   0  0  0  0  0  0  0  0  0  0  0  0
   15.2016   16.6086  -15.7327 C   0  0  0  0  0  0  0  0  0  0  0  0
   16.3308   17.2631  -16.3448 C   0  0  0  0  0  0  0  0  0  0  0  0
   16.7023   17.2427  -17.7871 C   0  0  0  0  0  0  0  0  0  0  0  0
   16.3518   17.6901  -14.1565 N   0  0  0  0  0  0  0  0  0  0  0  0
   14.4385   16.4789  -13.4142 N   0  0  0  0  0  0  0  0  0  0  0  0
   13.2602   15.3654  -15.1882 N   0  0  0  0  0  0  0  0  0  0  0  0
   16.6069   18.0388  -13.2445 H   0  0  0  0  0  0  0  0  0  0  0  0
   12.4765   15.1683  -12.9081 C   0  0  0  0  0  0  0  0  0  0  0  0
   12.7817   15.0973  -11.5342 C   0  0  0  0  0  0  0  0  0  0  0  0
   11.8663   14.5933  -10.6035 C   0  0  0  0  0  0  0  0  0  0  0  0
   10.6182   14.1458  -11.0253 C   0  0  0  0  0  0  0  0  0  0  0  0
   10.2855   14.2027  -12.3748 C   0  0  0  0  0  0  0  0  0  0  0  0
   11.2038   14.7079  -13.3018 C   0  0  0  0  0  0  0  0  0  0  0  0
   13.9085   15.4435  -17.4565 N   0  0  0  0  0  0  0  0  0  0  0  0
   13.6809   16.1576  -18.1344 H   0  0  0  0  0  0  0  0  0  0  0  0
   14.1848   14.1102  -17.9442 C   0  0  0  0  0  0  0  0  0  0  0  0
   12.9552   13.4638  -18.5824 C   0  0  0  0  0  0  0  0  0  0  0  0
   11.6627   14.2426  -18.3482 C   0  0  0  0  0  0  0  0  0  0  0  0
   11.2006   12.5922  -16.4803 C   0  0  0  0  0  0  0  0  0  0  0  0
    9.9730   12.2330  -15.6650 C   0  0  0  0  0  0  0  0  0  0  0  0
    8.7862   12.8546  -16.3896 C   0  0  0  0  0  0  0  0  0  0  0  0
    9.3930   13.8135  -17.3800 C   0  0  0  0  0  0  0  0  0  0  0  0
   10.7592   13.6036  -17.4029 N   0  0  0  0  0  0  0  0  0  0  0  0
    8.7669   14.6091  -18.0590 O   0  0  0  0  0  0  0  0  0  0  0  0
  1  2  1  0  0  0
  2  9  1  0  0  0
  4 10  2  0  0  0
  4 13  1  0  0  0
 14 15  2  0  0  0
 16 17  2  0  0  0
 18 13  2  0  0  0
  5 11  2  0  0  0
  5 19  1  0  0  0
 21 19  1  0  0  0
 21 22  1  0  0  0
 22 23  1  0  0  0
 23 28  1  0  0  0
 24 28  1  0  0  0
 24 25  1  0  0  0
 25 26  1  0  0  0
 26 27  1  0  0  0
 27 28  1  0  0  0
  6  7  1  0  0  0
  6  3  2  0  0  0
  8  7  1  0  0  0
  9  3  1  0  0  0
  3 10  1  0  0  0
  4 11  1  0  0  0
 13 14  1  0  0  0
 15 16  1  0  0  0
 17 18  1  0  0  0
  5  6  1  0  0  0
 27 29  2  0  0  0
  7  2  2  0  0  0
  9 12  1  0  0  0
 19 20  1  0  0  0
M  END
> <minimizedAffinity>
-9.08624

$$$$
CHEMBL78377


 29 32  0  0  0  0  0  0  0  0999 V2000
   10.3958   14.1420  -10.9915 C   0  0  0  0  0  0  0  0  0  0  0  0
   11.2012   14.5835  -12.1597 C   0  0  0  0  0  0  0  0  0  0  0  0
   12.9073   15.6018  -13.2047 C   0  0  0  0  0  0  0  0  0  0  0  0
   14.3851   16.4337  -14.6498 C   0  0  0  0  0  0  0  0  0  0  0  0
   12.6102   15.1556  -15.5136 C   0  0  0  0  0  0  0  0  0  0  0  0
   12.1452   15.0000  -14.1919 C   0  0  0  0  0  0  0  0  0  0  0  0
   11.0389   14.3615  -13.5235 C   0  0  0  0  0  0  0  0  0  0  0  0
    9.9320   13.5945  -14.1598 C   0  0  0  0  0  0  0  0  0  0  0  0
   12.3348   15.3393  -11.9951 N   0  0  0  0  0  0  0  0  0  0  0  0
   14.0227   16.3247  -13.3585 N   0  0  0  0  0  0  0  0  0  0  0  0
   13.7384   15.8864  -15.7042 N   0  0  0  0  0  0  0  0  0  0  0  0
   12.7141   15.6656  -11.1186 H   0  0  0  0  0  0  0  0  0  0  0  0
   15.5965   17.2362  -14.9445 C   0  0  0  0  0  0  0  0  0  0  0  0
   16.4714   17.6547  -13.9222 C   0  0  0  0  0  0  0  0  0  0  0  0
   17.6168   18.4096  -14.1989 C   0  0  0  0  0  0  0  0  0  0  0  0
   17.9167   18.7663  -15.5099 C   0  0  0  0  0  0  0  0  0  0  0  0
   17.0737   18.3685  -16.5425 C   0  0  0  0  0  0  0  0  0  0  0  0
   15.9298   17.6133  -16.2612 C   0  0  0  0  0  0  0  0  0  0  0  0
   11.9697   14.6079  -16.6036 N   0  0  0  0  0  0  0  0  0  0  0  0
   11.3556   15.1872  -17.1591 H   0  0  0  0  0  0  0  0  0  0  0  0
   12.2860   13.2866  -17.0995 C   0  0  0  0  0  0  0  0  0  0  0  0
   12.3102   13.2348  -18.6271 C   0  0  0  0  0  0  0  0  0  0  0  0
   11.0840   13.8681  -19.2809 C   0  0  0  0  0  0  0  0  0  0  0  0
    9.3793   11.9983  -19.4354 C   0  0  0  0  0  0  0  0  0  0  0  0
    8.0684   11.7005  -18.7327 C   0  0  0  0  0  0  0  0  0  0  0  0
    7.6684   12.9856  -18.0195 C   0  0  0  0  0  0  0  0  0  0  0  0
    8.9018   13.8494  -18.0519 C   0  0  0  0  0  0  0  0  0  0  0  0
    9.8271   13.2499  -18.8859 N   0  0  0  0  0  0  0  0  0  0  0  0
    9.0313   14.9083  -17.4621 O   0  0  0  0  0  0  0  0  0  0  0  0
  1  2  1  0  0  0
  2  9  1  0  0  0
  4 10  2  0  0  0
  4 13  1  0  0  0
 14 15  2  0  0  0
 16 17  2  0  0  0
 18 13  2  0  0  0
  5 11  2  0  0  0
  5 19  1  0  0  0
 21 19  1  0  0  0
 21 22  1  0  0  0
 22 23  1  0  0  0
 23 28  1  0  0  0
 24 28  1  0  0  0
 24 25  1  0  0  0
 25 26  1  0  0  0
 26 27  1  0  0  0
 27 28  1  0  0  0
  6  7  1  0  0  0
  6  3  2  0  0  0
  8  7  1  0  0  0
  9  3  1  0  0  0
  3 10  1  0  0  0
  4 11  1  0  0  0
 13 14  1  0  0  0
 15 16  1  0  0  0
 17 18  1  0  0  0
  5  6  1  0  0  0
 27 29  2  0  0  0
  7  2  2  0  0  0
  9 12  1  0  0  0
 19 20  1  0  0  0
M  END
> <minimizedAffinity>
-8.90327

$$$$
CHEMBL78377


 29 32  0  0  0  0  0  0  0  0999 V2000
   10.4300   14.1263  -10.8595 C   0  0  0  0  0  0  0  0  0  0  0  0
   10.6622   14.1366  -12.3272 C   0  0  0  0  0  0  0  0  0  0  0  0
   10.3031   13.5435  -14.4624 C   0  0  0  0  0  0  0  0  0  0  0  0
   10.3084   13.2794  -16.6748 C   0  0  0  0  0  0  0  0  0  0  0  0
   11.8148   14.8331  -15.7547 C   0  0  0  0  0  0  0  0  0  0  0  0
   11.3121   14.4916  -14.4826 C   0  0  0  0  0  0  0  0  0  0  0  0
   11.5564   14.8595  -13.1104 C   0  0  0  0  0  0  0  0  0  0  0  0
   12.5636   15.8373  -12.6124 C   0  0  0  0  0  0  0  0  0  0  0  0
    9.9202   13.3459  -13.1685 N   0  0  0  0  0  0  0  0  0  0  0  0
    9.7603   12.9036  -15.5047 N   0  0  0  0  0  0  0  0  0  0  0  0
   11.2871   14.1994  -16.8332 N   0  0  0  0  0  0  0  0  0  0  0  0
    9.1899   12.7044  -12.8972 H   0  0  0  0  0  0  0  0  0  0  0  0
    9.8015   12.6164  -17.9003 C   0  0  0  0  0  0  0  0  0  0  0  0
   10.6252   12.4170  -19.0261 C   0  0  0  0  0  0  0  0  0  0  0  0
   10.1493   11.7887  -20.1824 C   0  0  0  0  0  0  0  0  0  0  0  0
    8.8327   11.3428  -20.2419 C   0  0  0  0  0  0  0  0  0  0  0  0
    7.9935   11.5238  -19.1474 C   0  0  0  0  0  0  0  0  0  0  0  0
    8.4738   12.1521  -17.9930 C   0  0  0  0  0  0  0  0  0  0  0  0
   12.8106   15.7667  -15.9420 N   0  0  0  0  0  0  0  0  0  0  0  0
   12.5661   16.7456  -16.0006 H   0  0  0  0  0  0  0  0  0  0  0  0
   14.2134   15.4223  -15.8689 C   0  0  0  0  0  0  0  0  0  0  0  0
   15.0511   16.5446  -15.2559 C   0  0  0  0  0  0  0  0  0  0  0  0
   15.6311   17.5095  -16.2877 C   0  0  0  0  0  0  0  0  0  0  0  0
   18.0981   17.9196  -15.8730 C   0  0  0  0  0  0  0  0  0  0  0  0
   19.3780   17.3612  -16.4654 C   0  0  0  0  0  0  0  0  0  0  0  0
   18.9715   16.6260  -17.7360 C   0  0  0  0  0  0  0  0  0  0  0  0
   17.4734   16.4972  -17.6492 C   0  0  0  0  0  0  0  0  0  0  0  0
   17.0343   17.2679  -16.5889 N   0  0  0  0  0  0  0  0  0  0  0  0
   16.7809   15.8455  -18.4120 O   0  0  0  0  0  0  0  0  0  0  0  0
  1  2  1  0  0  0
  2  9  1  0  0  0
  4 10  2  0  0  0
  4 13  1  0  0  0
 14 15  2  0  0  0
 16 17  2  0  0  0
 18 13  2  0  0  0
  5 11  2  0  0  0
  5 19  1  0  0  0
 21 19  1  0  0  0
 21 22  1  0  0  0
 22 23  1  0  0  0
 23 28  1  0  0  0
 24 28  1  0  0  0
 24 25  1  0  0  0
 25 26  1  0  0  0
 26 27  1  0  0  0
 27 28  1  0  0  0
  6  7  1  0  0  0
  6  3  2  0  0  0
  8  7  1  0  0  0
  9  3  1  0  0  0
  3 10  1  0  0  0
  4 11  1  0  0  0
 13 14  1  0  0  0
 15 16  1  0  0  0
 17 18  1  0  0  0
  5  6  1  0  0  0
 27 29  2  0  0  0
  7  2  2  0  0  0
  9 12  1  0  0  0
 19 20  1  0  0  0
M  END
> <minimizedAffinity>
-8.58917

$$$$
CHEMBL78377


 29 32  0  0  0  0  0  0  0  0999 V2000
    7.3681   11.6755  -18.7473 C   0  0  0  0  0  0  0  0  0  0  0  0
    8.6071   12.2101  -18.1251 C   0  0  0  0  0  0  0  0  0  0  0  0
    9.8548   13.1103  -16.4903 C   0  0  0  0  0  0  0  0  0  0  0  0
   11.4589   13.9597  -15.1980 C   0  0  0  0  0  0  0  0  0  0  0  0
   12.0582   13.2389  -17.3547 C   0  0  0  0  0  0  0  0  0  0  0  0
   10.7087   12.8844  -17.5567 C   0  0  0  0  0  0  0  0  0  0  0  0
    9.9048   12.3236  -18.6138 C   0  0  0  0  0  0  0  0  0  0  0  0
   10.3665   11.9242  -19.9724 C   0  0  0  0  0  0  0  0  0  0  0  0
    8.6037   12.6968  -16.8420 N   0  0  0  0  0  0  0  0  0  0  0  0
   10.1560   13.6381  -15.2982 N   0  0  0  0  0  0  0  0  0  0  0  0
   12.3963   13.7802  -16.1564 N   0  0  0  0  0  0  0  0  0  0  0  0
    7.8070   12.7508  -16.2249 H   0  0  0  0  0  0  0  0  0  0  0  0
   11.9047   14.5776  -13.9261 C   0  0  0  0  0  0  0  0  0  0  0  0
   13.0158   15.4429  -13.8754 C   0  0  0  0  0  0  0  0  0  0  0  0
   13.4361   16.0292  -12.6763 C   0  0  0  0  0  0  0  0  0  0  0  0
   12.7534   15.7635  -11.4935 C   0  0  0  0  0  0  0  0  0  0  0  0
   11.6520   14.9139  -11.5093 C   0  0  0  0  0  0  0  0  0  0  0  0
   11.2350   14.3302  -12.7107 C   0  0  0  0  0  0  0  0  0  0  0  0
   13.0311   13.0657  -18.3146 N   0  0  0  0  0  0  0  0  0  0  0  0
   13.1121   12.1729  -18.7813 H   0  0  0  0  0  0  0  0  0  0  0  0
   13.8210   14.1673  -18.8188 C   0  0  0  0  0  0  0  0  0  0  0  0
   13.0804   14.9631  -19.8935 C   0  0  0  0  0  0  0  0  0  0  0  0
   13.7685   14.9396  -21.2565 C   0  0  0  0  0  0  0  0  0  0  0  0
   12.2706   14.3099  -23.2022 C   0  0  0  0  0  0  0  0  0  0  0  0
   11.9868   13.0179  -23.9445 C   0  0  0  0  0  0  0  0  0  0  0  0
   12.5625   11.9000  -23.0849 C   0  0  0  0  0  0  0  0  0  0  0  0
   13.4368   12.5959  -22.0750 C   0  0  0  0  0  0  0  0  0  0  0  0
   13.2126   13.9564  -22.1743 N   0  0  0  0  0  0  0  0  0  0  0  0
   14.1841   12.0362  -21.2913 O   0  0  0  0  0  0  0  0  0  0  0  0
  1  2  1  0  0  0
  2  9  1  0  0  0
  4 10  2  0  0  0
  4 13  1  0  0  0
 14 15  2  0  0  0
 16 17  2  0  0  0
 18 13  2  0  0  0
  5 11  2  0  0  0
  5 19  1  0  0  0
 21 19  1  0  0  0
 21 22  1  0  0  0
 22 23  1  0  0  0
 23 28  1  0  0  0
 24 28  1  0  0  0
 24 25  1  0  0  0
 25 26  1  0  0  0
 26 27  1  0  0  0
 27 28  1  0  0  0
  6  7  1  0  0  0
  6  3  2  0  0  0
  8  7  1  0  0  0
  9  3  1  0  0  0
  3 10  1  0  0  0
  4 11  1  0  0  0
 13 14  1  0  0  0
 15 16  1  0  0  0
 17 18  1  0  0  0
  5  6  1  0  0  0
 27 29  2  0  0  0
  7  2  2  0  0  0
  9 12  1  0  0  0
 19 20  1  0  0  0
M  END
> <minimizedAffinity>
-8.49539

$$$$
CHEMBL78377


 29 32  0  0  0  0  0  0  0  0999 V2000
   12.7313   15.4334  -10.8552 C   0  0  0  0  0  0  0  0  0  0  0  0
   13.2956   15.7227  -12.1991 C   0  0  0  0  0  0  0  0  0  0  0  0
   14.7882   16.5448  -13.6608 C   0  0  0  0  0  0  0  0  0  0  0  0
   15.9680   17.1591  -15.4482 C   0  0  0  0  0  0  0  0  0  0  0  0
   14.0059   15.9137  -15.8075 C   0  0  0  0  0  0  0  0  0  0  0  0
   13.8170   15.9028  -14.4105 C   0  0  0  0  0  0  0  0  0  0  0  0
   12.8481   15.3906  -13.4739 C   0  0  0  0  0  0  0  0  0  0  0  0
   11.6055   14.6352  -13.7960 C   0  0  0  0  0  0  0  0  0  0  0  0
   14.4669   16.4237  -12.3409 N   0  0  0  0  0  0  0  0  0  0  0  0
   15.8749   17.1858  -14.1060 N   0  0  0  0  0  0  0  0  0  0  0  0
   15.0980   16.5587  -16.2919 N   0  0  0  0  0  0  0  0  0  0  0  0
   15.0305   16.8039  -11.5950 H   0  0  0  0  0  0  0  0  0  0  0  0
   17.1228   17.8614  -16.0578 C   0  0  0  0  0  0  0  0  0  0  0  0
   17.4573   17.6906  -17.4161 C   0  0  0  0  0  0  0  0  0  0  0  0
   18.5450   18.3550  -17.9938 C   0  0  0  0  0  0  0  0  0  0  0  0
   19.3284   19.2097  -17.2246 C   0  0  0  0  0  0  0  0  0  0  0  0
   19.0247   19.4006  -15.8806 C   0  0  0  0  0  0  0  0  0  0  0  0
   17.9358   18.7346  -15.3072 C   0  0  0  0  0  0  0  0  0  0  0  0
   13.1346   15.3095  -16.6872 N   0  0  0  0  0  0  0  0  0  0  0  0
   12.1426   15.4799  -16.5964 H   0  0  0  0  0  0  0  0  0  0  0  0
   13.5940   14.5902  -17.8548 C   0  0  0  0  0  0  0  0  0  0  0  0
   12.8499   13.2688  -18.0474 C   0  0  0  0  0  0  0  0  0  0  0  0
   11.8581   12.9557  -16.9292 C   0  0  0  0  0  0  0  0  0  0  0  0
    9.7183   12.0347  -17.9287 C   0  0  0  0  0  0  0  0  0  0  0  0
    8.3232   12.5917  -18.1396 C   0  0  0  0  0  0  0  0  0  0  0  0
    8.4298   14.0954  -17.9213 C   0  0  0  0  0  0  0  0  0  0  0  0
    9.7734   14.3007  -17.2723 C   0  0  0  0  0  0  0  0  0  0  0  0
   10.4656   13.1052  -17.3251 N   0  0  0  0  0  0  0  0  0  0  0  0
   10.1759   15.3558  -16.8134 O   0  0  0  0  0  0  0  0  0  0  0  0
  1  2  1  0  0  0
  2  9  1  0  0  0
  4 10  2  0  0  0
  4 13  1  0  0  0
 14 15  2  0  0  0
 16 17  2  0  0  0
 18 13  2  0  0  0
  5 11  2  0  0  0
  5 19  1  0  0  0
 21 19  1  0  0  0
 21 22  1  0  0  0
 22 23  1  0  0  0
 23 28  1  0  0  0
 24 28  1  0  0  0
 24 25  1  0  0  0
 25 26  1  0  0  0
 26 27  1  0  0  0
 27 28  1  0  0  0
  6  7  1  0  0  0
  6  3  2  0  0  0
  8  7  1  0  0  0
  9  3  1  0  0  0
  3 10  1  0  0  0
  4 11  1  0  0  0
 13 14  1  0  0  0
 15 16  1  0  0  0
 17 18  1  0  0  0
  5  6  1  0  0  0
 27 29  2  0  0  0
  7  2  2  0  0  0
  9 12  1  0  0  0
 19 20  1  0  0  0
M  END
> <minimizedAffinity>
-8.39612

$$$$
CHEMBL78377


 29 32  0  0  0  0  0  0  0  0999 V2000
   12.8436   15.7673  -10.9846 C   0  0  0  0  0  0  0  0  0  0  0  0
   12.7095   15.4812  -12.4366 C   0  0  0  0  0  0  0  0  0  0  0  0
   11.7207   14.6720  -14.2825 C   0  0  0  0  0  0  0  0  0  0  0  0
   11.1308   14.0665  -16.3440 C   0  0  0  0  0  0  0  0  0  0  0  0
   13.1228   15.2902  -16.0910 C   0  0  0  0  0  0  0  0  0  0  0  0
   12.8801   15.3021  -14.7023 C   0  0  0  0  0  0  0  0  0  0  0  0
   13.5254   15.8059  -13.5158 C   0  0  0  0  0  0  0  0  0  0  0  0
   14.8153   16.5474  -13.4457 C   0  0  0  0  0  0  0  0  0  0  0  0
   11.6286   14.7924  -12.9272 N   0  0  0  0  0  0  0  0  0  0  0  0
   10.8129   14.0416  -15.0367 N   0  0  0  0  0  0  0  0  0  0  0  0
   12.2218   14.6558  -16.8841 N   0  0  0  0  0  0  0  0  0  0  0  0
   10.8617   14.4197  -12.3874 H   0  0  0  0  0  0  0  0  0  0  0  0
   10.2073   13.3752  -17.2755 C   0  0  0  0  0  0  0  0  0  0  0  0
    8.8089   13.4449  -17.1158 C   0  0  0  0  0  0  0  0  0  0  0  0
    7.9358   12.7956  -17.9958 C   0  0  0  0  0  0  0  0  0  0  0  0
    8.4414   12.0574  -19.0613 C   0  0  0  0  0  0  0  0  0  0  0  0
    9.8171   11.9690  -19.2473 C   0  0  0  0  0  0  0  0  0  0  0  0
   10.6864   12.6203  -18.3652 C   0  0  0  0  0  0  0  0  0  0  0  0
   14.2260   15.8834  -16.6649 N   0  0  0  0  0  0  0  0  0  0  0  0
   14.5222   16.7940  -16.3418 H   0  0  0  0  0  0  0  0  0  0  0  0
   15.0925   15.1751  -17.5810 C   0  0  0  0  0  0  0  0  0  0  0  0
   16.3340   15.9891  -17.9458 C   0  0  0  0  0  0  0  0  0  0  0  0
   16.5089   17.2505  -17.1030 C   0  0  0  0  0  0  0  0  0  0  0  0
   18.9912   16.7853  -17.3212 C   0  0  0  0  0  0  0  0  0  0  0  0
   20.2471   17.5120  -16.8792 C   0  0  0  0  0  0  0  0  0  0  0  0
   19.7954   18.5695  -15.8801 C   0  0  0  0  0  0  0  0  0  0  0  0
   18.2993   18.6409  -16.0381 C   0  0  0  0  0  0  0  0  0  0  0  0
   17.8999   17.5934  -16.8470 N   0  0  0  0  0  0  0  0  0  0  0  0
   17.5777   19.4691  -15.5095 O   0  0  0  0  0  0  0  0  0  0  0  0
  1  2  1  0  0  0
  2  9  1  0  0  0
  4 10  2  0  0  0
  4 13  1  0  0  0
 14 15  2  0  0  0
 16 17  2  0  0  0
 18 13  2  0  0  0
  5 11  2  0  0  0
  5 19  1  0  0  0
 21 19  1  0  0  0
 21 22  1  0  0  0
 22 23  1  0  0  0
 23 28  1  0  0  0
 24 28  1  0  0  0
 24 25  1  0  0  0
 25 26  1  0  0  0
 26 27  1  0  0  0
 27 28  1  0  0  0
  6  7  1  0  0  0
  6  3  2  0  0  0
  8  7  1  0  0  0
  9  3  1  0  0  0
  3 10  1  0  0  0
  4 11  1  0  0  0
 13 14  1  0  0  0
 15 16  1  0  0  0
 17 18  1  0  0  0
  5  6  1  0  0  0
 27 29  2  0  0  0
  7  2  2  0  0  0
  9 12  1  0  0  0
 19 20  1  0  0  0
M  END
> <minimizedAffinity>
-8.38836

$$$$
CHEMBL78377


 29 32  0  0  0  0  0  0  0  0999 V2000
    7.2441   11.2287  -19.5250 C   0  0  0  0  0  0  0  0  0  0  0  0
    8.3826   11.7558  -18.7287 C   0  0  0  0  0  0  0  0  0  0  0  0
    9.3912   12.6157  -16.9167 C   0  0  0  0  0  0  0  0  0  0  0  0
   10.7987   13.4396  -15.3987 C   0  0  0  0  0  0  0  0  0  0  0  0
   11.6870   12.7949  -17.4785 C   0  0  0  0  0  0  0  0  0  0  0  0
   10.3812   12.4331  -17.8675 C   0  0  0  0  0  0  0  0  0  0  0  0
    9.7316   11.8984  -19.0381 C   0  0  0  0  0  0  0  0  0  0  0  0
   10.3737   11.5477  -20.3355 C   0  0  0  0  0  0  0  0  0  0  0  0
    8.2034   12.2009  -17.4429 N   0  0  0  0  0  0  0  0  0  0  0  0
    9.5252   13.1079  -15.6797 N   0  0  0  0  0  0  0  0  0  0  0  0
   11.8566   13.3007  -16.2300 N   0  0  0  0  0  0  0  0  0  0  0  0
    7.3317   12.2268  -16.9350 H   0  0  0  0  0  0  0  0  0  0  0  0
   11.0644   14.0207  -14.0608 C   0  0  0  0  0  0  0  0  0  0  0  0
   12.1803   14.8479  -13.8236 C   0  0  0  0  0  0  0  0  0  0  0  0
   12.4308   15.3996  -12.5622 C   0  0  0  0  0  0  0  0  0  0  0  0
   11.5685   15.1366  -11.5025 C   0  0  0  0  0  0  0  0  0  0  0  0
   10.4573   14.3241  -11.7034 C   0  0  0  0  0  0  0  0  0  0  0  0
   10.2104   13.7750  -12.9665 C   0  0  0  0  0  0  0  0  0  0  0  0
   12.7802   12.6627  -18.3064 N   0  0  0  0  0  0  0  0  0  0  0  0
   13.2952   11.7932  -18.3106 H   0  0  0  0  0  0  0  0  0  0  0  0
   13.1102   13.6499  -19.3106 C   0  0  0  0  0  0  0  0  0  0  0  0
   13.6818   14.9278  -18.6965 C   0  0  0  0  0  0  0  0  0  0  0  0
   14.8026   14.6756  -17.6902 C   0  0  0  0  0  0  0  0  0  0  0  0
   16.7543   16.1685  -18.3131 C   0  0  0  0  0  0  0  0  0  0  0  0
   17.3292   17.4516  -17.7438 C   0  0  0  0  0  0  0  0  0  0  0  0
   16.6950   17.6272  -16.3701 C   0  0  0  0  0  0  0  0  0  0  0  0
   15.5499   16.6492  -16.3416 C   0  0  0  0  0  0  0  0  0  0  0  0
   15.6484   15.8364  -17.4555 N   0  0  0  0  0  0  0  0  0  0  0  0
   14.7086   16.5809  -15.4621 O   0  0  0  0  0  0  0  0  0  0  0  0
  1  2  1  0  0  0
  2  9  1  0  0  0
  4 10  2  0  0  0
  4 13  1  0  0  0
 14 15  2  0  0  0
 16 17  2  0  0  0
 18 13  2  0  0  0
  5 11  2  0  0  0
  5 19  1  0  0  0
 21 19  1  0  0  0
 21 22  1  0  0  0
 22 23  1  0  0  0
 23 28  1  0  0  0
 24 28  1  0  0  0
 24 25  1  0  0  0
 25 26  1  0  0  0
 26 27  1  0  0  0
 27 28  1  0  0  0
  6  7  1  0  0  0
  6  3  2  0  0  0
  8  7  1  0  0  0
  9  3  1  0  0  0
  3 10  1  0  0  0
  4 11  1  0  0  0
 13 14  1  0  0  0
 15 16  1  0  0  0
 17 18  1  0  0  0
  5  6  1  0  0  0
 27 29  2  0  0  0
  7  2  2  0  0  0
  9 12  1  0  0  0
 19 20  1  0  0  0
M  END
> <minimizedAffinity>
-8.29203

$$$$
CHEMBL78377


 29 32  0  0  0  0  0  0  0  0999 V2000
    8.0456   12.1015  -18.3442 C   0  0  0  0  0  0  0  0  0  0  0  0
    9.4337   12.6178  -18.4654 C   0  0  0  0  0  0  0  0  0  0  0  0
   11.1305   13.7258  -19.4314 C   0  0  0  0  0  0  0  0  0  0  0  0
   13.0626   14.6877  -19.9847 C   0  0  0  0  0  0  0  0  0  0  0  0
   12.9530   13.5584  -17.9250 C   0  0  0  0  0  0  0  0  0  0  0  0
   11.6128   13.2417  -18.2270 C   0  0  0  0  0  0  0  0  0  0  0  0
   10.5296   12.5141  -17.6144 C   0  0  0  0  0  0  0  0  0  0  0  0
   10.5603   11.7942  -16.3108 C   0  0  0  0  0  0  0  0  0  0  0  0
    9.8254   13.3507  -19.5575 N   0  0  0  0  0  0  0  0  0  0  0  0
   11.7897   14.4448  -20.3473 N   0  0  0  0  0  0  0  0  0  0  0  0
   13.6508   14.2845  -18.8354 N   0  0  0  0  0  0  0  0  0  0  0  0
    9.2520   13.5938  -20.3516 H   0  0  0  0  0  0  0  0  0  0  0  0
   13.8994   15.4572  -20.9365 C   0  0  0  0  0  0  0  0  0  0  0  0
   13.8312   15.2346  -22.3263 C   0  0  0  0  0  0  0  0  0  0  0  0
   14.6180   15.9620  -23.2263 C   0  0  0  0  0  0  0  0  0  0  0  0
   15.4963   16.9337  -22.7569 C   0  0  0  0  0  0  0  0  0  0  0  0
   15.5873   17.1784  -21.3906 C   0  0  0  0  0  0  0  0  0  0  0  0
   14.7982   16.4490  -20.4944 C   0  0  0  0  0  0  0  0  0  0  0  0
   13.5742   13.1598  -16.7616 N   0  0  0  0  0  0  0  0  0  0  0  0
   13.9570   12.2266  -16.6999 H   0  0  0  0  0  0  0  0  0  0  0  0
   13.8696   14.0850  -15.6899 C   0  0  0  0  0  0  0  0  0  0  0  0
   12.6988   15.0244  -15.4004 C   0  0  0  0  0  0  0  0  0  0  0  0
   12.7651   15.6792  -14.0224 C   0  0  0  0  0  0  0  0  0  0  0  0
   10.6945   14.3893  -13.3333 C   0  0  0  0  0  0  0  0  0  0  0  0
   10.2114   13.7808  -12.0305 C   0  0  0  0  0  0  0  0  0  0  0  0
   11.0969   14.3634  -10.9366 C   0  0  0  0  0  0  0  0  0  0  0  0
   12.2485   15.0030  -11.6668 C   0  0  0  0  0  0  0  0  0  0  0  0
   11.9540   15.0081  -13.0175 N   0  0  0  0  0  0  0  0  0  0  0  0
   13.2465   15.4607  -11.1372 O   0  0  0  0  0  0  0  0  0  0  0  0
  1  2  1  0  0  0
  2  9  1  0  0  0
  4 10  2  0  0  0
  4 13  1  0  0  0
 14 15  2  0  0  0
 16 17  2  0  0  0
 18 13  2  0  0  0
  5 11  2  0  0  0
  5 19  1  0  0  0
 21 19  1  0  0  0
 21 22  1  0  0  0
 22 23  1  0  0  0
 23 28  1  0  0  0
 24 28  1  0  0  0
 24 25  1  0  0  0
 25 26  1  0  0  0
 26 27  1  0  0  0
 27 28  1  0  0  0
  6  7  1  0  0  0
  6  3  2  0  0  0
  8  7  1  0  0  0
  9  3  1  0  0  0
  3 10  1  0  0  0
  4 11  1  0  0  0
 13 14  1  0  0  0
 15 16  1  0  0  0
 17 18  1  0  0  0
  5  6  1  0  0  0
 27 29  2  0  0  0
  7  2  2  0  0  0
  9 12  1  0  0  0
 19 20  1  0  0  0
M  END
> <minimizedAffinity>
-7.71382

$$$$
CHEMBL78377


 29 32  0  0  0  0  0  0  0  0999 V2000
    8.4644   12.0565  -19.1025 C   0  0  0  0  0  0  0  0  0  0  0  0
    9.5290   12.7860  -18.3659 C   0  0  0  0  0  0  0  0  0  0  0  0
   10.5745   13.6066  -16.5567 C   0  0  0  0  0  0  0  0  0  0  0  0
   11.9453   14.5767  -15.0923 C   0  0  0  0  0  0  0  0  0  0  0  0
   12.5546   14.6304  -17.3629 C   0  0  0  0  0  0  0  0  0  0  0  0
   11.3652   13.9288  -17.6469 C   0  0  0  0  0  0  0  0  0  0  0  0
   10.6854   13.4186  -18.8113 C   0  0  0  0  0  0  0  0  0  0  0  0
   11.1324   13.5291  -20.2278 C   0  0  0  0  0  0  0  0  0  0  0  0
    9.4840   12.9185  -17.0007 N   0  0  0  0  0  0  0  0  0  0  0  0
   10.7986   13.8952  -15.2695 N   0  0  0  0  0  0  0  0  0  0  0  0
   12.8100   14.9413  -16.0663 N   0  0  0  0  0  0  0  0  0  0  0  0
    8.7627   12.5663  -16.3890 H   0  0  0  0  0  0  0  0  0  0  0  0
   12.2858   14.9739  -13.7050 C   0  0  0  0  0  0  0  0  0  0  0  0
   13.4202   15.7597  -13.4195 C   0  0  0  0  0  0  0  0  0  0  0  0
   13.7414   16.1380  -12.1111 C   0  0  0  0  0  0  0  0  0  0  0  0
   12.9331   15.7381  -11.0515 C   0  0  0  0  0  0  0  0  0  0  0  0
   11.8055   14.9622  -11.2994 C   0  0  0  0  0  0  0  0  0  0  0  0
   11.4879   14.5866  -12.6094 C   0  0  0  0  0  0  0  0  0  0  0  0
   13.4510   15.0124  -18.3369 N   0  0  0  0  0  0  0  0  0  0  0  0
   13.1218   15.5430  -19.1315 H   0  0  0  0  0  0  0  0  0  0  0  0
   14.8791   14.8491  -18.1765 C   0  0  0  0  0  0  0  0  0  0  0  0
   15.6413   16.1468  -18.4446 C   0  0  0  0  0  0  0  0  0  0  0  0
   16.3297   16.7197  -17.2078 C   0  0  0  0  0  0  0  0  0  0  0  0
   17.1071   19.0566  -17.8083 C   0  0  0  0  0  0  0  0  0  0  0  0
   18.4648   19.6970  -18.0261 C   0  0  0  0  0  0  0  0  0  0  0  0
   19.4590   18.5500  -18.1533 C   0  0  0  0  0  0  0  0  0  0  0  0
   18.7130   17.3327  -17.6733 C   0  0  0  0  0  0  0  0  0  0  0  0
   17.3830   17.6755  -17.5159 N   0  0  0  0  0  0  0  0  0  0  0  0
   19.2085   16.2340  -17.4911 O   0  0  0  0  0  0  0  0  0  0  0  0
  1  2  1  0  0  0
  2  9  1  0  0  0
  4 10  2  0  0  0
  4 13  1  0  0  0
 14 15  2  0  0  0
 16 17  2  0  0  0
 18 13  2  0  0  0
  5 11  2  0  0  0
  5 19  1  0  0  0
 21 19  1  0  0  0
 21 22  1  0  0  0
 22 23  1  0  0  0
 23 28  1  0  0  0
 24 28  1  0  0  0
 24 25  1  0  0  0
 25 26  1  0  0  0
 26 27  1  0  0  0
 27 28  1  0  0  0
  6  7  1  0  0  0
  6  3  2  0  0  0
  8  7  1  0  0  0
  9  3  1  0  0  0
  3 10  1  0  0  0
  4 11  1  0  0  0
 13 14  1  0  0  0
 15 16  1  0  0  0
 17 18  1  0  0  0
  5  6  1  0  0  0
 27 29  2  0  0  0
  7  2  2  0  0  0
  9 12  1  0  0  0
 19 20  1  0  0  0
M  END
> <minimizedAffinity>
-7.50906

$$$$
