CHEMBL4285366


 27 31  0  0  0  0  0  0  0  0999 V2000
   15.1785   13.7748    3.5821 C   0  0  0  0  0  0  0  0  0  0  0  0
   14.7951   15.1323    4.1989 C   0  0  0  0  0  0  0  0  0  0  0  0
   17.1978   14.9463    4.3785 C   0  0  0  0  0  0  0  0  0  0  0  0
   16.6962   13.7508    3.6085 C   0  0  0  0  0  0  0  0  0  0  0  0
   17.4542   13.2993    2.3688 C   0  0  0  0  0  0  0  0  0  0  0  0
   17.4987   12.4583    3.6052 C   0  0  0  0  0  0  0  0  0  0  0  0
   16.1548   16.8571    5.4930 C   0  0  0  0  0  0  0  0  0  0  0  0
   16.0203   15.7045    4.7496 N   0  0  0  0  0  0  0  0  0  0  0  0
   17.2407   17.3491    5.7906 O   0  0  0  0  0  0  0  0  0  0  0  0
   14.9369   17.5604    5.9392 C   0  0  0  0  0  0  0  0  0  0  0  0
   14.2808   17.1034    7.0788 C   0  0  0  0  0  0  0  0  0  0  0  0
   13.1238   17.7578    7.4545 C   0  0  0  0  0  0  0  0  0  0  0  0
   13.2431   19.1962    5.6549 C   0  0  0  0  0  0  0  0  0  0  0  0
   14.4035   18.6072    5.1914 C   0  0  0  0  0  0  0  0  0  0  0  0
   12.5980   18.8018    6.7753 N   0  0  0  0  0  0  0  0  0  0  0  0
   14.4892   12.5947    5.6721 C   0  0  0  0  0  0  0  0  0  0  0  0
   14.5472   12.6038    4.2222 N   0  0  0  0  0  0  0  0  0  0  0  0
   13.9288   11.6024    3.4817 C   0  0  0  0  0  0  0  0  0  0  0  0
   12.1569   11.0090    2.0436 C   0  0  0  0  0  0  0  0  0  0  0  0
   13.5571    9.4006    2.5990 C   0  0  0  0  0  0  0  0  0  0  0  0
   14.3342   10.2404    3.3915 C   0  0  0  0  0  0  0  0  0  0  0  0
   15.3796    9.4067    3.9043 C   0  0  0  0  0  0  0  0  0  0  0  0
   15.2014    8.1270    3.4215 C   0  0  0  0  0  0  0  0  0  0  0  0
   12.8211   11.9333    2.7581 N   0  0  0  0  0  0  0  0  0  0  0  0
   12.4596    9.7165    1.9010 N   0  0  0  0  0  0  0  0  0  0  0  0
   14.0872    8.1410    2.6298 N   0  0  0  0  0  0  0  0  0  0  0  0
   13.6921    7.3567    2.1315 H   0  0  0  0  0  0  0  0  0  0  0  0
 16 17  1  0  0  0
  1 17  1  0  0  0
  1  2  1  0  0  0
  2  8  1  0  0  0
  3  8  1  0  0  0
  3  4  1  0  0  0
  4  5  1  0  0  0
  4  1  1  0  0  0
  5  6  1  0  0  0
  6  4  1  0  0  0
  7 10  1  0  0  0
 11 12  2  0  0  0
 13 15  2  0  0  0
 14 10  2  0  0  0
 19 24  2  0  0  0
 20 25  2  0  0  0
 21 22  1  0  0  0
 21 18  2  0  0  0
 23 26  1  0  0  0
 17 18  1  0  0  0
  8  7  1  0  0  0
 26 20  1  0  0  0
  7  9  2  0  0  0
 10 11  1  0  0  0
 12 15  1  0  0  0
 13 14  1  0  0  0
 18 24  1  0  0  0
 19 25  1  0  0  0
 20 21  1  0  0  0
 22 23  2  0  0  0
 26 27  1  0  0  0
M  END
> <minimizedAffinity>
-8.55599

$$$$
CHEMBL4285366


 27 31  0  0  0  0  0  0  0  0999 V2000
   15.6932   14.1520    3.5107 C   0  0  0  0  0  0  0  0  0  0  0  0
   14.8610   13.0101    2.8994 C   0  0  0  0  0  0  0  0  0  0  0  0
   13.4028   14.9325    3.0324 C   0  0  0  0  0  0  0  0  0  0  0  0
   14.7805   15.3643    3.4673 C   0  0  0  0  0  0  0  0  0  0  0  0
   15.3310   16.6917    2.9671 C   0  0  0  0  0  0  0  0  0  0  0  0
   14.9437   16.5510    4.4052 C   0  0  0  0  0  0  0  0  0  0  0  0
   12.3776   12.8171    2.3578 C   0  0  0  0  0  0  0  0  0  0  0  0
   13.4977   13.5130    2.7582 N   0  0  0  0  0  0  0  0  0  0  0  0
   11.2965   13.3509    2.1206 O   0  0  0  0  0  0  0  0  0  0  0  0
   12.4766   11.3562    2.1760 C   0  0  0  0  0  0  0  0  0  0  0  0
   11.7894   10.7662    1.1187 C   0  0  0  0  0  0  0  0  0  0  0  0
   11.8706    9.3930    0.9922 C   0  0  0  0  0  0  0  0  0  0  0  0
   13.1946    9.2055    2.8720 C   0  0  0  0  0  0  0  0  0  0  0  0
   13.1727   10.5694    3.0902 C   0  0  0  0  0  0  0  0  0  0  0  0
   12.5683    8.6016    1.8375 N   0  0  0  0  0  0  0  0  0  0  0  0
   15.3440   13.9733    5.9769 C   0  0  0  0  0  0  0  0  0  0  0  0
   16.2493   13.8653    4.8479 N   0  0  0  0  0  0  0  0  0  0  0  0
   17.5479   13.3998    5.0225 C   0  0  0  0  0  0  0  0  0  0  0  0
   19.8145   13.9402    5.3837 C   0  0  0  0  0  0  0  0  0  0  0  0
   19.3301   11.7994    5.1877 C   0  0  0  0  0  0  0  0  0  0  0  0
   17.9716   12.0405    5.0046 C   0  0  0  0  0  0  0  0  0  0  0  0
   17.3812   10.7454    4.8464 C   0  0  0  0  0  0  0  0  0  0  0  0
   18.3752    9.7931    4.9326 C   0  0  0  0  0  0  0  0  0  0  0  0
   18.5332   14.3181    5.2364 N   0  0  0  0  0  0  0  0  0  0  0  0
   20.3034   12.6978    5.3806 N   0  0  0  0  0  0  0  0  0  0  0  0
   19.5549   10.4518    5.1392 N   0  0  0  0  0  0  0  0  0  0  0  0
   20.4683   10.0341    5.2438 H   0  0  0  0  0  0  0  0  0  0  0  0
 16 17  1  0  0  0
  1 17  1  0  0  0
  1  2  1  0  0  0
  2  8  1  0  0  0
  3  8  1  0  0  0
  3  4  1  0  0  0
  4  5  1  0  0  0
  4  1  1  0  0  0
  5  6  1  0  0  0
  6  4  1  0  0  0
  7 10  1  0  0  0
 11 12  2  0  0  0
 13 15  2  0  0  0
 14 10  2  0  0  0
 19 24  2  0  0  0
 20 25  2  0  0  0
 21 22  1  0  0  0
 21 18  2  0  0  0
 23 26  1  0  0  0
 17 18  1  0  0  0
  8  7  1  0  0  0
 26 20  1  0  0  0
  7  9  2  0  0  0
 10 11  1  0  0  0
 12 15  1  0  0  0
 13 14  1  0  0  0
 18 24  1  0  0  0
 19 25  1  0  0  0
 20 21  1  0  0  0
 22 23  2  0  0  0
 26 27  1  0  0  0
M  END
> <minimizedAffinity>
-8.27783

$$$$
CHEMBL4285366


 27 31  0  0  0  0  0  0  0  0999 V2000
   15.0978   15.7066    5.6711 C   0  0  0  0  0  0  0  0  0  0  0  0
   16.5350   15.2144    5.9208 C   0  0  0  0  0  0  0  0  0  0  0  0
   16.3203   17.3295    7.0697 C   0  0  0  0  0  0  0  0  0  0  0  0
   14.9702   16.9707    6.5020 C   0  0  0  0  0  0  0  0  0  0  0  0
   13.7301   17.1743    7.3599 C   0  0  0  0  0  0  0  0  0  0  0  0
   13.9648   18.0670    6.1827 C   0  0  0  0  0  0  0  0  0  0  0  0
   18.5546   16.3377    6.9969 C   0  0  0  0  0  0  0  0  0  0  0  0
   17.2227   16.2773    6.6481 N   0  0  0  0  0  0  0  0  0  0  0  0
   19.0226   17.1972    7.7400 O   0  0  0  0  0  0  0  0  0  0  0  0
   19.4721   15.3057    6.4772 C   0  0  0  0  0  0  0  0  0  0  0  0
   19.8067   14.2335    7.2997 C   0  0  0  0  0  0  0  0  0  0  0  0
   20.6950   13.3002    6.8016 C   0  0  0  0  0  0  0  0  0  0  0  0
   20.9338   14.4508    4.8165 C   0  0  0  0  0  0  0  0  0  0  0  0
   20.0602   15.4410    5.2221 C   0  0  0  0  0  0  0  0  0  0  0  0
   21.2554   13.3785    5.5738 N   0  0  0  0  0  0  0  0  0  0  0  0
   15.5360   16.8249    3.4817 C   0  0  0  0  0  0  0  0  0  0  0  0
   14.7424   15.8831    4.2491 N   0  0  0  0  0  0  0  0  0  0  0  0
   13.7701   15.1055    3.6298 C   0  0  0  0  0  0  0  0  0  0  0  0
   11.6963   15.0484    2.5089 C   0  0  0  0  0  0  0  0  0  0  0  0
   12.6919   13.1106    2.8405 C   0  0  0  0  0  0  0  0  0  0  0  0
   13.7808   13.6888    3.4864 C   0  0  0  0  0  0  0  0  0  0  0  0
   14.6370   12.5927    3.8275 C   0  0  0  0  0  0  0  0  0  0  0  0
   14.0511   11.4223    3.3923 C   0  0  0  0  0  0  0  0  0  0  0  0
   12.6877   15.7405    3.0958 N   0  0  0  0  0  0  0  0  0  0  0  0
   11.6193   13.7275    2.3302 N   0  0  0  0  0  0  0  0  0  0  0  0
   12.8677   11.7557    2.7950 N   0  0  0  0  0  0  0  0  0  0  0  0
   12.2041   11.1205    2.3758 H   0  0  0  0  0  0  0  0  0  0  0  0
 16 17  1  0  0  0
  1 17  1  0  0  0
  1  2  1  0  0  0
  2  8  1  0  0  0
  3  8  1  0  0  0
  3  4  1  0  0  0
  4  5  1  0  0  0
  4  1  1  0  0  0
  5  6  1  0  0  0
  6  4  1  0  0  0
  7 10  1  0  0  0
 11 12  2  0  0  0
 13 15  2  0  0  0
 14 10  2  0  0  0
 19 24  2  0  0  0
 20 25  2  0  0  0
 21 22  1  0  0  0
 21 18  2  0  0  0
 23 26  1  0  0  0
 17 18  1  0  0  0
  8  7  1  0  0  0
 26 20  1  0  0  0
  7  9  2  0  0  0
 10 11  1  0  0  0
 12 15  1  0  0  0
 13 14  1  0  0  0
 18 24  1  0  0  0
 19 25  1  0  0  0
 20 21  1  0  0  0
 22 23  2  0  0  0
 26 27  1  0  0  0
M  END
> <minimizedAffinity>
-8.18572

$$$$
CHEMBL4285366


 27 31  0  0  0  0  0  0  0  0999 V2000
   17.3450   15.8325    5.0224 C   0  0  0  0  0  0  0  0  0  0  0  0
   18.8184   15.4062    5.1547 C   0  0  0  0  0  0  0  0  0  0  0  0
   17.4990   13.3876    5.3103 C   0  0  0  0  0  0  0  0  0  0  0  0
   16.5638   14.5310    5.0072 C   0  0  0  0  0  0  0  0  0  0  0  0
   15.4676   14.3340    3.9704 C   0  0  0  0  0  0  0  0  0  0  0  0
   15.1010   14.4446    5.4165 C   0  0  0  0  0  0  0  0  0  0  0  0
   19.8962   13.1725    5.7441 C   0  0  0  0  0  0  0  0  0  0  0  0
   18.8174   13.9743    5.4398 N   0  0  0  0  0  0  0  0  0  0  0  0
   19.8301   11.9480    5.8227 O   0  0  0  0  0  0  0  0  0  0  0  0
   21.2111   13.8047    5.9640 C   0  0  0  0  0  0  0  0  0  0  0  0
   21.9620   14.1879    4.8562 C   0  0  0  0  0  0  0  0  0  0  0  0
   23.2043   14.7452    5.0893 C   0  0  0  0  0  0  0  0  0  0  0  0
   22.9824   14.5126    7.3736 C   0  0  0  0  0  0  0  0  0  0  0  0
   21.7313   13.9402    7.2487 C   0  0  0  0  0  0  0  0  0  0  0  0
   23.7251   14.9278    6.3235 N   0  0  0  0  0  0  0  0  0  0  0  0
   17.4706   16.6888    7.3649 C   0  0  0  0  0  0  0  0  0  0  0  0
   16.8862   16.7976    6.0410 N   0  0  0  0  0  0  0  0  0  0  0  0
   16.0210   17.8413    5.7317 C   0  0  0  0  0  0  0  0  0  0  0  0
   15.6797   19.8424    4.5320 C   0  0  0  0  0  0  0  0  0  0  0  0
   14.0154   19.1595    5.8049 C   0  0  0  0  0  0  0  0  0  0  0  0
   14.7045   18.0312    6.2401 C   0  0  0  0  0  0  0  0  0  0  0  0
   13.8020   17.3630    7.1289 C   0  0  0  0  0  0  0  0  0  0  0  0
   12.6331   18.0917    7.2017 C   0  0  0  0  0  0  0  0  0  0  0  0
   16.4526   18.7908    4.8531 N   0  0  0  0  0  0  0  0  0  0  0  0
   14.4410   20.1032    4.9565 N   0  0  0  0  0  0  0  0  0  0  0  0
   12.7806   19.1821    6.3909 N   0  0  0  0  0  0  0  0  0  0  0  0
   12.0994   19.9099    6.2296 H   0  0  0  0  0  0  0  0  0  0  0  0
 16 17  1  0  0  0
  1 17  1  0  0  0
  1  2  1  0  0  0
  2  8  1  0  0  0
  3  8  1  0  0  0
  3  4  1  0  0  0
  4  5  1  0  0  0
  4  1  1  0  0  0
  5  6  1  0  0  0
  6  4  1  0  0  0
  7 10  1  0  0  0
 11 12  2  0  0  0
 13 15  2  0  0  0
 14 10  2  0  0  0
 19 24  2  0  0  0
 20 25  2  0  0  0
 21 22  1  0  0  0
 21 18  2  0  0  0
 23 26  1  0  0  0
 17 18  1  0  0  0
  8  7  1  0  0  0
 26 20  1  0  0  0
  7  9  2  0  0  0
 10 11  1  0  0  0
 12 15  1  0  0  0
 13 14  1  0  0  0
 18 24  1  0  0  0
 19 25  1  0  0  0
 20 21  1  0  0  0
 22 23  2  0  0  0
 26 27  1  0  0  0
M  END
> <minimizedAffinity>
-7.99415

$$$$
CHEMBL4285366


 27 31  0  0  0  0  0  0  0  0999 V2000
   15.7889   13.2932    3.5513 C   0  0  0  0  0  0  0  0  0  0  0  0
   16.1541   11.8117    3.7561 C   0  0  0  0  0  0  0  0  0  0  0  0
   13.9057   11.8526    2.8713 C   0  0  0  0  0  0  0  0  0  0  0  0
   14.4233   13.2688    2.8886 C   0  0  0  0  0  0  0  0  0  0  0  0
   14.1643   14.1647    1.6863 C   0  0  0  0  0  0  0  0  0  0  0  0
   13.4476   14.4331    2.9716 C   0  0  0  0  0  0  0  0  0  0  0  0
   14.7667    9.6796    3.5909 C   0  0  0  0  0  0  0  0  0  0  0  0
   14.9557   11.0371    3.4472 N   0  0  0  0  0  0  0  0  0  0  0  0
   13.7793    9.0838    3.1666 O   0  0  0  0  0  0  0  0  0  0  0  0
   15.8106    8.8848    4.2659 C   0  0  0  0  0  0  0  0  0  0  0  0
   15.8449    7.5093    4.0541 C   0  0  0  0  0  0  0  0  0  0  0  0
   16.8102    6.7843    4.7254 C   0  0  0  0  0  0  0  0  0  0  0  0
   17.6223    8.6678    5.7812 C   0  0  0  0  0  0  0  0  0  0  0  0
   16.6927    9.4816    5.1632 C   0  0  0  0  0  0  0  0  0  0  0  0
   17.7074    7.3349    5.5737 N   0  0  0  0  0  0  0  0  0  0  0  0
   15.1333   13.6333    5.9368 C   0  0  0  0  0  0  0  0  0  0  0  0
   15.8499   14.1202    4.7727 N   0  0  0  0  0  0  0  0  0  0  0  0
   16.6474   15.2564    4.8551 C   0  0  0  0  0  0  0  0  0  0  0  0
   18.7978   16.1440    5.2395 C   0  0  0  0  0  0  0  0  0  0  0  0
   17.1908   17.5951    4.8298 C   0  0  0  0  0  0  0  0  0  0  0  0
   16.2220   16.6054    4.6906 C   0  0  0  0  0  0  0  0  0  0  0  0
   15.0091   17.3092    4.4003 C   0  0  0  0  0  0  0  0  0  0  0  0
   15.2775   18.6620    4.3788 C   0  0  0  0  0  0  0  0  0  0  0  0
   17.9752   15.0884    5.1171 N   0  0  0  0  0  0  0  0  0  0  0  0
   18.4912   17.4364    5.1038 N   0  0  0  0  0  0  0  0  0  0  0  0
   16.6094   18.8182    4.6432 N   0  0  0  0  0  0  0  0  0  0  0  0
   17.1147   19.6907    4.6988 H   0  0  0  0  0  0  0  0  0  0  0  0
 16 17  1  0  0  0
  1 17  1  0  0  0
  1  2  1  0  0  0
  2  8  1  0  0  0
  3  8  1  0  0  0
  3  4  1  0  0  0
  4  5  1  0  0  0
  4  1  1  0  0  0
  5  6  1  0  0  0
  6  4  1  0  0  0
  7 10  1  0  0  0
 11 12  2  0  0  0
 13 15  2  0  0  0
 14 10  2  0  0  0
 19 24  2  0  0  0
 20 25  2  0  0  0
 21 22  1  0  0  0
 21 18  2  0  0  0
 23 26  1  0  0  0
 17 18  1  0  0  0
  8  7  1  0  0  0
 26 20  1  0  0  0
  7  9  2  0  0  0
 10 11  1  0  0  0
 12 15  1  0  0  0
 13 14  1  0  0  0
 18 24  1  0  0  0
 19 25  1  0  0  0
 20 21  1  0  0  0
 22 23  2  0  0  0
 26 27  1  0  0  0
M  END
> <minimizedAffinity>
-7.99204

$$$$
CHEMBL4285366


 27 31  0  0  0  0  0  0  0  0999 V2000
   15.8875   14.4450    4.6623 C   0  0  0  0  0  0  0  0  0  0  0  0
   17.2651   14.4728    5.3491 C   0  0  0  0  0  0  0  0  0  0  0  0
   16.7248   16.7615    4.7924 C   0  0  0  0  0  0  0  0  0  0  0  0
   15.5360   15.9045    4.4371 C   0  0  0  0  0  0  0  0  0  0  0  0
   14.1395   16.3957    4.7892 C   0  0  0  0  0  0  0  0  0  0  0  0
   14.5672   16.3601    3.3562 C   0  0  0  0  0  0  0  0  0  0  0  0
   18.9704   16.3411    5.6651 C   0  0  0  0  0  0  0  0  0  0  0  0
   17.7412   15.8513    5.2797 N   0  0  0  0  0  0  0  0  0  0  0  0
   19.2378   17.5394    5.7135 O   0  0  0  0  0  0  0  0  0  0  0  0
   20.0207   15.3863    6.0679 C   0  0  0  0  0  0  0  0  0  0  0  0
   20.8254   14.8228    5.0816 C   0  0  0  0  0  0  0  0  0  0  0  0
   21.7775   13.9055    5.4820 C   0  0  0  0  0  0  0  0  0  0  0  0
   21.1378   14.0679    7.6925 C   0  0  0  0  0  0  0  0  0  0  0  0
   20.1525   14.9897    7.3963 C   0  0  0  0  0  0  0  0  0  0  0  0
   21.9599   13.5258    6.7666 N   0  0  0  0  0  0  0  0  0  0  0  0
   16.7376   13.9453    2.3680 C   0  0  0  0  0  0  0  0  0  0  0  0
   15.8205   13.6152    3.4431 N   0  0  0  0  0  0  0  0  0  0  0  0
   15.0027   12.4938    3.3580 C   0  0  0  0  0  0  0  0  0  0  0  0
   14.7712   10.1774    3.7333 C   0  0  0  0  0  0  0  0  0  0  0  0
   13.0425   11.2089    2.8367 C   0  0  0  0  0  0  0  0  0  0  0  0
   13.6772   12.4476    2.8398 C   0  0  0  0  0  0  0  0  0  0  0  0
   12.7228   13.3568    2.2801 C   0  0  0  0  0  0  0  0  0  0  0  0
   11.5779   12.6559    1.9630 C   0  0  0  0  0  0  0  0  0  0  0  0
   15.4961   11.3063    3.8122 N   0  0  0  0  0  0  0  0  0  0  0  0
   13.5286   10.0377    3.2652 N   0  0  0  0  0  0  0  0  0  0  0  0
   11.7901   11.3503    2.3073 N   0  0  0  0  0  0  0  0  0  0  0  0
   11.1403   10.5850    2.1988 H   0  0  0  0  0  0  0  0  0  0  0  0
 16 17  1  0  0  0
  1 17  1  0  0  0
  1  2  1  0  0  0
  2  8  1  0  0  0
  3  8  1  0  0  0
  3  4  1  0  0  0
  4  5  1  0  0  0
  4  1  1  0  0  0
  5  6  1  0  0  0
  6  4  1  0  0  0
  7 10  1  0  0  0
 11 12  2  0  0  0
 13 15  2  0  0  0
 14 10  2  0  0  0
 19 24  2  0  0  0
 20 25  2  0  0  0
 21 22  1  0  0  0
 21 18  2  0  0  0
 23 26  1  0  0  0
 17 18  1  0  0  0
  8  7  1  0  0  0
 26 20  1  0  0  0
  7  9  2  0  0  0
 10 11  1  0  0  0
 12 15  1  0  0  0
 13 14  1  0  0  0
 18 24  1  0  0  0
 19 25  1  0  0  0
 20 21  1  0  0  0
 22 23  2  0  0  0
 26 27  1  0  0  0
M  END
> <minimizedAffinity>
-7.99109

$$$$
CHEMBL4285366


 27 31  0  0  0  0  0  0  0  0999 V2000
   14.7666   11.6141    4.4624 C   0  0  0  0  0  0  0  0  0  0  0  0
   15.0051   13.0418    4.9868 C   0  0  0  0  0  0  0  0  0  0  0  0
   13.4365   13.2310    3.1583 C   0  0  0  0  0  0  0  0  0  0  0  0
   13.6932   11.7648    3.3996 C   0  0  0  0  0  0  0  0  0  0  0  0
   12.5189   10.7972    3.3866 C   0  0  0  0  0  0  0  0  0  0  0  0
   13.5106   10.7653    2.2672 C   0  0  0  0  0  0  0  0  0  0  0  0
   14.2881   15.3214    4.0993 C   0  0  0  0  0  0  0  0  0  0  0  0
   14.2825   13.9433    4.0941 N   0  0  0  0  0  0  0  0  0  0  0  0
   13.5347   16.0051    3.4103 O   0  0  0  0  0  0  0  0  0  0  0  0
   15.2267   16.0243    4.9949 C   0  0  0  0  0  0  0  0  0  0  0  0
   14.7614   16.4819    6.2246 C   0  0  0  0  0  0  0  0  0  0  0  0
   15.6513   17.1674    7.0285 C   0  0  0  0  0  0  0  0  0  0  0  0
   17.3403   16.9913    5.4672 C   0  0  0  0  0  0  0  0  0  0  0  0
   16.5293   16.3011    4.5873 C   0  0  0  0  0  0  0  0  0  0  0  0
   16.9334   17.4206    6.6826 N   0  0  0  0  0  0  0  0  0  0  0  0
   17.0023   11.7220    3.3550 C   0  0  0  0  0  0  0  0  0  0  0  0
   15.9807   10.9153    3.9962 N   0  0  0  0  0  0  0  0  0  0  0  0
   16.2011    9.5670    4.2554 C   0  0  0  0  0  0  0  0  0  0  0  0
   15.5357    7.3393    3.8621 C   0  0  0  0  0  0  0  0  0  0  0  0
   17.2304    7.6338    5.2395 C   0  0  0  0  0  0  0  0  0  0  0  0
   17.1963    9.0196    5.1142 C   0  0  0  0  0  0  0  0  0  0  0  0
   18.2565    9.4958    5.9509 C   0  0  0  0  0  0  0  0  0  0  0  0
   18.8750    8.4127    6.5399 C   0  0  0  0  0  0  0  0  0  0  0  0
   15.3975    8.6566    3.6346 N   0  0  0  0  0  0  0  0  0  0  0  0
   16.4332    6.7373    4.6462 N   0  0  0  0  0  0  0  0  0  0  0  0
   18.2373    7.2878    6.0970 N   0  0  0  0  0  0  0  0  0  0  0  0
   18.4541    6.3339    6.3473 H   0  0  0  0  0  0  0  0  0  0  0  0
 16 17  1  0  0  0
  1 17  1  0  0  0
  1  2  1  0  0  0
  2  8  1  0  0  0
  3  8  1  0  0  0
  3  4  1  0  0  0
  4  5  1  0  0  0
  4  1  1  0  0  0
  5  6  1  0  0  0
  6  4  1  0  0  0
  7 10  1  0  0  0
 11 12  2  0  0  0
 13 15  2  0  0  0
 14 10  2  0  0  0
 19 24  2  0  0  0
 20 25  2  0  0  0
 21 22  1  0  0  0
 21 18  2  0  0  0
 23 26  1  0  0  0
 17 18  1  0  0  0
  8  7  1  0  0  0
 26 20  1  0  0  0
  7  9  2  0  0  0
 10 11  1  0  0  0
 12 15  1  0  0  0
 13 14  1  0  0  0
 18 24  1  0  0  0
 19 25  1  0  0  0
 20 21  1  0  0  0
 22 23  2  0  0  0
 26 27  1  0  0  0
M  END
> <minimizedAffinity>
-7.95895

$$$$
CHEMBL4285366


 27 31  0  0  0  0  0  0  0  0999 V2000
   15.5988   14.2382    3.6220 C   0  0  0  0  0  0  0  0  0  0  0  0
   14.8433   13.0545    2.9909 C   0  0  0  0  0  0  0  0  0  0  0  0
   13.3220   14.9320    2.9747 C   0  0  0  0  0  0  0  0  0  0  0  0
   14.6546   15.4191    3.4852 C   0  0  0  0  0  0  0  0  0  0  0  0
   15.1963   16.7498    2.9841 C   0  0  0  0  0  0  0  0  0  0  0  0
   14.7202   16.6348    4.3976 C   0  0  0  0  0  0  0  0  0  0  0  0
   12.4075   12.7678    2.2958 C   0  0  0  0  0  0  0  0  0  0  0  0
   13.4775   13.5096    2.7477 N   0  0  0  0  0  0  0  0  0  0  0  0
   11.3286   13.2603    1.9742 O   0  0  0  0  0  0  0  0  0  0  0  0
   12.5623   11.3066    2.1624 C   0  0  0  0  0  0  0  0  0  0  0  0
   11.8689   10.6509    1.1488 C   0  0  0  0  0  0  0  0  0  0  0  0
   12.0039    9.2785    1.0681 C   0  0  0  0  0  0  0  0  0  0  0  0
   13.3907    9.2138    2.9104 C   0  0  0  0  0  0  0  0  0  0  0  0
   13.3182   10.5827    3.0812 C   0  0  0  0  0  0  0  0  0  0  0  0
   12.7595    8.5476    1.9182 N   0  0  0  0  0  0  0  0  0  0  0  0
   15.1278   13.4296    5.9372 C   0  0  0  0  0  0  0  0  0  0  0  0
   16.0745   14.0049    4.9999 N   0  0  0  0  0  0  0  0  0  0  0  0
   17.3990   14.2135    5.3683 C   0  0  0  0  0  0  0  0  0  0  0  0
   19.6339   13.4744    5.2299 C   0  0  0  0  0  0  0  0  0  0  0  0
   19.2620   15.2665    6.4573 C   0  0  0  0  0  0  0  0  0  0  0  0
   17.8931   15.2537    6.2059 C   0  0  0  0  0  0  0  0  0  0  0  0
   17.3722   16.3794    6.9216 C   0  0  0  0  0  0  0  0  0  0  0  0
   18.4136   17.0136    7.5663 C   0  0  0  0  0  0  0  0  0  0  0  0
   18.3396   13.3493    4.8903 N   0  0  0  0  0  0  0  0  0  0  0  0
   20.1865   14.4108    6.0048 N   0  0  0  0  0  0  0  0  0  0  0  0
   19.5561   16.3226    7.2739 N   0  0  0  0  0  0  0  0  0  0  0  0
   20.4888   16.5355    7.5970 H   0  0  0  0  0  0  0  0  0  0  0  0
 16 17  1  0  0  0
  1 17  1  0  0  0
  1  2  1  0  0  0
  2  8  1  0  0  0
  3  8  1  0  0  0
  3  4  1  0  0  0
  4  5  1  0  0  0
  4  1  1  0  0  0
  5  6  1  0  0  0
  6  4  1  0  0  0
  7 10  1  0  0  0
 11 12  2  0  0  0
 13 15  2  0  0  0
 14 10  2  0  0  0
 19 24  2  0  0  0
 20 25  2  0  0  0
 21 22  1  0  0  0
 21 18  2  0  0  0
 23 26  1  0  0  0
 17 18  1  0  0  0
  8  7  1  0  0  0
 26 20  1  0  0  0
  7  9  2  0  0  0
 10 11  1  0  0  0
 12 15  1  0  0  0
 13 14  1  0  0  0
 18 24  1  0  0  0
 19 25  1  0  0  0
 20 21  1  0  0  0
 22 23  2  0  0  0
 26 27  1  0  0  0
M  END
> <minimizedAffinity>
-7.84519

$$$$
CHEMBL4285366


 27 31  0  0  0  0  0  0  0  0999 V2000
   15.2270   12.1488    4.6488 C   0  0  0  0  0  0  0  0  0  0  0  0
   15.2548   13.6142    5.1199 C   0  0  0  0  0  0  0  0  0  0  0  0
   13.5893   13.4816    3.3739 C   0  0  0  0  0  0  0  0  0  0  0  0
   14.0930   12.0858    3.6416 C   0  0  0  0  0  0  0  0  0  0  0  0
   13.0930   10.9415    3.7187 C   0  0  0  0  0  0  0  0  0  0  0  0
   14.0210   11.0298    2.5488 C   0  0  0  0  0  0  0  0  0  0  0  0
   14.1336   15.7147    4.2094 C   0  0  0  0  0  0  0  0  0  0  0  0
   14.3524   14.3545    4.2427 N   0  0  0  0  0  0  0  0  0  0  0  0
   13.2461   16.2425    3.5432 O   0  0  0  0  0  0  0  0  0  0  0  0
   14.9874   16.5917    5.0333 C   0  0  0  0  0  0  0  0  0  0  0  0
   16.1967   17.0351    4.5049 C   0  0  0  0  0  0  0  0  0  0  0  0
   16.9930   17.8261    5.3102 C   0  0  0  0  0  0  0  0  0  0  0  0
   15.5003   17.7034    7.0647 C   0  0  0  0  0  0  0  0  0  0  0  0
   14.6351   16.9031    6.3442 C   0  0  0  0  0  0  0  0  0  0  0  0
   16.6655   18.1804    6.5730 N   0  0  0  0  0  0  0  0  0  0  0  0
   17.1582   12.4045    3.0864 C   0  0  0  0  0  0  0  0  0  0  0  0
   16.5146   11.6386    4.1376 N   0  0  0  0  0  0  0  0  0  0  0  0
   17.1512   10.5408    4.7061 C   0  0  0  0  0  0  0  0  0  0  0  0
   18.9503    9.7488    6.0084 C   0  0  0  0  0  0  0  0  0  0  0  0
   17.5504    8.2329    5.2348 C   0  0  0  0  0  0  0  0  0  0  0  0
   16.7552    9.1777    4.5926 C   0  0  0  0  0  0  0  0  0  0  0  0
   15.7063    8.4238    3.9743 C   0  0  0  0  0  0  0  0  0  0  0  0
   15.9001    7.0867    4.2524 C   0  0  0  0  0  0  0  0  0  0  0  0
   18.2688   10.7661    5.4544 N   0  0  0  0  0  0  0  0  0  0  0  0
   18.6576    8.4472    5.9557 N   0  0  0  0  0  0  0  0  0  0  0  0
   17.0272    6.9885    5.0193 N   0  0  0  0  0  0  0  0  0  0  0  0
   17.4352    6.1404    5.3853 H   0  0  0  0  0  0  0  0  0  0  0  0
 16 17  1  0  0  0
  1 17  1  0  0  0
  1  2  1  0  0  0
  2  8  1  0  0  0
  3  8  1  0  0  0
  3  4  1  0  0  0
  4  5  1  0  0  0
  4  1  1  0  0  0
  5  6  1  0  0  0
  6  4  1  0  0  0
  7 10  1  0  0  0
 11 12  2  0  0  0
 13 15  2  0  0  0
 14 10  2  0  0  0
 19 24  2  0  0  0
 20 25  2  0  0  0
 21 22  1  0  0  0
 21 18  2  0  0  0
 23 26  1  0  0  0
 17 18  1  0  0  0
  8  7  1  0  0  0
 26 20  1  0  0  0
  7  9  2  0  0  0
 10 11  1  0  0  0
 12 15  1  0  0  0
 13 14  1  0  0  0
 18 24  1  0  0  0
 19 25  1  0  0  0
 20 21  1  0  0  0
 22 23  2  0  0  0
 26 27  1  0  0  0
M  END
> <minimizedAffinity>
-7.83711

$$$$
CHEMBL4293188


 29 33  0  0  0  0  0  0  0  0999 V2000
   15.7710   14.4478    3.6119 C   0  0  0  0  0  0  0  0  0  0  0  0
   15.0192   13.3073    2.9024 C   0  0  0  0  0  0  0  0  0  0  0  0
   13.4185   15.0773    3.2408 C   0  0  0  0  0  0  0  0  0  0  0  0
   14.7721   15.5857    3.6704 C   0  0  0  0  0  0  0  0  0  0  0  0
   14.8882   16.7394    4.6536 C   0  0  0  0  0  0  0  0  0  0  0  0
   15.2074   16.9701    3.2103 C   0  0  0  0  0  0  0  0  0  0  0  0
   12.5127   12.9526    2.4573 C   0  0  0  0  0  0  0  0  0  0  0  0
   13.6076   13.6843    2.8776 N   0  0  0  0  0  0  0  0  0  0  0  0
   11.4319   13.4858    2.2027 O   0  0  0  0  0  0  0  0  0  0  0  0
   12.5884   11.4748    2.3056 C   0  0  0  0  0  0  0  0  0  0  0  0
   11.8423   10.7881    1.3423 C   0  0  0  0  0  0  0  0  0  0  0  0
   11.9856    9.4088    1.1840 C   0  0  0  0  0  0  0  0  0  0  0  0
   12.9338    8.7167    1.9359 C   0  0  0  0  0  0  0  0  0  0  0  0
   13.7433    9.4043    2.8464 C   0  0  0  0  0  0  0  0  0  0  0  0
   13.5596   10.7782    3.0421 C   0  0  0  0  0  0  0  0  0  0  0  0
   14.7862    8.7042    3.5397 C   0  0  0  0  0  0  0  0  0  0  0  0
   15.6206    8.1159    4.0894 N   0  0  0  0  0  0  0  0  0  0  0  0
   15.5371   14.2377    6.0890 C   0  0  0  0  0  0  0  0  0  0  0  0
   16.3697   14.0751    4.9114 N   0  0  0  0  0  0  0  0  0  0  0  0
   17.6848   13.6398    5.0403 C   0  0  0  0  0  0  0  0  0  0  0  0
   19.9406   14.2168    5.4092 C   0  0  0  0  0  0  0  0  0  0  0  0
   19.5017   12.0693    5.1777 C   0  0  0  0  0  0  0  0  0  0  0  0
   18.1404   12.2883    4.9857 C   0  0  0  0  0  0  0  0  0  0  0  0
   17.5819   10.9843    4.7816 C   0  0  0  0  0  0  0  0  0  0  0  0
   18.5909   10.0486    4.8757 C   0  0  0  0  0  0  0  0  0  0  0  0
   18.6517   14.5746    5.2630 N   0  0  0  0  0  0  0  0  0  0  0  0
   20.4544   12.9835    5.3952 N   0  0  0  0  0  0  0  0  0  0  0  0
   19.7532   10.7264    5.1151 N   0  0  0  0  0  0  0  0  0  0  0  0
   20.6719   10.3233    5.2308 H   0  0  0  0  0  0  0  0  0  0  0  0
 18 19  1  0  0  0
  1 19  1  0  0  0
  1  2  1  0  0  0
  2  8  1  0  0  0
  3  8  1  0  0  0
  3  4  1  0  0  0
  4  5  1  0  0  0
  4  1  1  0  0  0
  5  6  1  0  0  0
  6  4  1  0  0  0
  7 10  1  0  0  0
 11 12  2  0  0  0
 13 14  2  0  0  0
 14 16  1  0  0  0
 15 10  2  0  0  0
 21 26  2  0  0  0
 22 27  2  0  0  0
 23 24  1  0  0  0
 23 20  2  0  0  0
 25 28  1  0  0  0
 19 20  1  0  0  0
  8  7  1  0  0  0
 28 22  1  0  0  0
  7  9  2  0  0  0
 10 11  1  0  0  0
 12 13  1  0  0  0
 14 15  1  0  0  0
 20 26  1  0  0  0
 21 27  1  0  0  0
 22 23  1  0  0  0
 24 25  2  0  0  0
 16 17  3  0  0  0
 28 29  1  0  0  0
M  END
> <minimizedAffinity>
-9.90470

$$$$
CHEMBL4293188


 29 33  0  0  0  0  0  0  0  0999 V2000
   16.2367   14.4962    5.3193 C   0  0  0  0  0  0  0  0  0  0  0  0
   15.7461   13.0613    5.0550 C   0  0  0  0  0  0  0  0  0  0  0  0
   18.1549   12.9746    5.0476 C   0  0  0  0  0  0  0  0  0  0  0  0
   17.7407   14.3675    5.4519 C   0  0  0  0  0  0  0  0  0  0  0  0
   18.6911   15.5401    5.2701 C   0  0  0  0  0  0  0  0  0  0  0  0
   18.4309   15.0126    6.6458 C   0  0  0  0  0  0  0  0  0  0  0  0
   17.0103   10.9508    4.3108 C   0  0  0  0  0  0  0  0  0  0  0  0
   16.9280   12.2640    4.7344 N   0  0  0  0  0  0  0  0  0  0  0  0
   18.0618   10.3120    4.3704 O   0  0  0  0  0  0  0  0  0  0  0  0
   15.8259   10.2497    3.7468 C   0  0  0  0  0  0  0  0  0  0  0  0
   15.6996    8.8573    3.7848 C   0  0  0  0  0  0  0  0  0  0  0  0
   14.5457    8.2358    3.3046 C   0  0  0  0  0  0  0  0  0  0  0  0
   13.4759    9.0076    2.8536 C   0  0  0  0  0  0  0  0  0  0  0  0
   13.5573   10.4038    2.8847 C   0  0  0  0  0  0  0  0  0  0  0  0
   14.7364   11.0231    3.3157 C   0  0  0  0  0  0  0  0  0  0  0  0
   12.4152   11.1906    2.5173 C   0  0  0  0  0  0  0  0  0  0  0  0
   11.4821   11.8056    2.2082 N   0  0  0  0  0  0  0  0  0  0  0  0
   15.8541   15.1135    2.9302 C   0  0  0  0  0  0  0  0  0  0  0  0
   15.7805   15.4946    4.3288 N   0  0  0  0  0  0  0  0  0  0  0  0
   15.3489   16.7686    4.6839 C   0  0  0  0  0  0  0  0  0  0  0  0
   15.2125   19.0510    4.1100 C   0  0  0  0  0  0  0  0  0  0  0  0
   14.2541   18.4558    6.0035 C   0  0  0  0  0  0  0  0  0  0  0  0
   14.6225   17.1209    5.8609 C   0  0  0  0  0  0  0  0  0  0  0  0
   14.1124   16.4702    7.0315 C   0  0  0  0  0  0  0  0  0  0  0  0
   13.4547   17.4018    7.8074 C   0  0  0  0  0  0  0  0  0  0  0  0
   15.6142   17.7977    3.8302 N   0  0  0  0  0  0  0  0  0  0  0  0
   14.5134   19.4694    5.1691 N   0  0  0  0  0  0  0  0  0  0  0  0
   13.5523   18.6056    7.1678 N   0  0  0  0  0  0  0  0  0  0  0  0
   13.1750   19.4874    7.4841 H   0  0  0  0  0  0  0  0  0  0  0  0
 18 19  1  0  0  0
  1 19  1  0  0  0
  1  2  1  0  0  0
  2  8  1  0  0  0
  3  8  1  0  0  0
  3  4  1  0  0  0
  4  5  1  0  0  0
  4  1  1  0  0  0
  5  6  1  0  0  0
  6  4  1  0  0  0
  7 10  1  0  0  0
 11 12  2  0  0  0
 13 14  2  0  0  0
 14 16  1  0  0  0
 15 10  2  0  0  0
 21 26  2  0  0  0
 22 27  2  0  0  0
 23 24  1  0  0  0
 23 20  2  0  0  0
 25 28  1  0  0  0
 19 20  1  0  0  0
  8  7  1  0  0  0
 28 22  1  0  0  0
  7  9  2  0  0  0
 10 11  1  0  0  0
 12 13  1  0  0  0
 14 15  1  0  0  0
 20 26  1  0  0  0
 21 27  1  0  0  0
 22 23  1  0  0  0
 24 25  2  0  0  0
 16 17  3  0  0  0
 28 29  1  0  0  0
M  END
> <minimizedAffinity>
-9.65642

$$$$
CHEMBL4293188


 29 33  0  0  0  0  0  0  0  0999 V2000
   15.8264   14.4858    3.5563 C   0  0  0  0  0  0  0  0  0  0  0  0
   15.1044   13.3019    2.8880 C   0  0  0  0  0  0  0  0  0  0  0  0
   13.4602   15.0436    3.1581 C   0  0  0  0  0  0  0  0  0  0  0  0
   14.7999   15.6003    3.5711 C   0  0  0  0  0  0  0  0  0  0  0  0
   14.8853   16.7920    4.5113 C   0  0  0  0  0  0  0  0  0  0  0  0
   15.2027   16.9771    3.0610 C   0  0  0  0  0  0  0  0  0  0  0  0
   12.6085   12.8700    2.4518 C   0  0  0  0  0  0  0  0  0  0  0  0
   13.6842   13.6432    2.8469 N   0  0  0  0  0  0  0  0  0  0  0  0
   11.5157   13.3670    2.1758 O   0  0  0  0  0  0  0  0  0  0  0  0
   12.7205   11.3900    2.3548 C   0  0  0  0  0  0  0  0  0  0  0  0
   11.9698   10.6470    1.4380 C   0  0  0  0  0  0  0  0  0  0  0  0
   12.1465    9.2668    1.3289 C   0  0  0  0  0  0  0  0  0  0  0  0
   13.1314    8.6296    2.0820 C   0  0  0  0  0  0  0  0  0  0  0  0
   13.9442    9.3730    2.9445 C   0  0  0  0  0  0  0  0  0  0  0  0
   13.7282   10.7482    3.0922 C   0  0  0  0  0  0  0  0  0  0  0  0
   15.0226    8.7279    3.6369 C   0  0  0  0  0  0  0  0  0  0  0  0
   15.8868    8.2188    4.2185 N   0  0  0  0  0  0  0  0  0  0  0  0
   15.5985   13.4668    5.8245 C   0  0  0  0  0  0  0  0  0  0  0  0
   16.4305   14.1759    4.8697 N   0  0  0  0  0  0  0  0  0  0  0  0
   17.7130   14.5804    5.2258 C   0  0  0  0  0  0  0  0  0  0  0  0
   20.0356   14.3130    4.9229 C   0  0  0  0  0  0  0  0  0  0  0  0
   19.4040   15.8843    6.3335 C   0  0  0  0  0  0  0  0  0  0  0  0
   18.0507   15.6138    6.1505 C   0  0  0  0  0  0  0  0  0  0  0  0
   17.3704   16.5337    7.0137 C   0  0  0  0  0  0  0  0  0  0  0  0
   18.3067   17.3190    7.6533 C   0  0  0  0  0  0  0  0  0  0  0  0
   18.7706   13.9591    4.6310 N   0  0  0  0  0  0  0  0  0  0  0  0
   20.4453   15.2763    5.7532 N   0  0  0  0  0  0  0  0  0  0  0  0
   19.5395   16.9090    7.2293 N   0  0  0  0  0  0  0  0  0  0  0  0
   20.4310   17.2858    7.5175 H   0  0  0  0  0  0  0  0  0  0  0  0
 18 19  1  0  0  0
  1 19  1  0  0  0
  1  2  1  0  0  0
  2  8  1  0  0  0
  3  8  1  0  0  0
  3  4  1  0  0  0
  4  5  1  0  0  0
  4  1  1  0  0  0
  5  6  1  0  0  0
  6  4  1  0  0  0
  7 10  1  0  0  0
 11 12  2  0  0  0
 13 14  2  0  0  0
 14 16  1  0  0  0
 15 10  2  0  0  0
 21 26  2  0  0  0
 22 27  2  0  0  0
 23 24  1  0  0  0
 23 20  2  0  0  0
 25 28  1  0  0  0
 19 20  1  0  0  0
  8  7  1  0  0  0
 28 22  1  0  0  0
  7  9  2  0  0  0
 10 11  1  0  0  0
 12 13  1  0  0  0
 14 15  1  0  0  0
 20 26  1  0  0  0
 21 27  1  0  0  0
 22 23  1  0  0  0
 24 25  2  0  0  0
 16 17  3  0  0  0
 28 29  1  0  0  0
M  END
> <minimizedAffinity>
-9.61643

$$$$
CHEMBL4293188


 29 33  0  0  0  0  0  0  0  0999 V2000
   18.8055   13.7222    4.8260 C   0  0  0  0  0  0  0  0  0  0  0  0
   17.7697   12.7598    4.2174 C   0  0  0  0  0  0  0  0  0  0  0  0
   16.5519   14.2480    5.6706 C   0  0  0  0  0  0  0  0  0  0  0  0
   17.9820   14.7238    5.6101 C   0  0  0  0  0  0  0  0  0  0  0  0
   18.5608   15.5774    6.7270 C   0  0  0  0  0  0  0  0  0  0  0  0
   18.2452   16.2097    5.4084 C   0  0  0  0  0  0  0  0  0  0  0  0
   15.2987   12.3485    4.7931 C   0  0  0  0  0  0  0  0  0  0  0  0
   16.5018   13.0216    4.8950 N   0  0  0  0  0  0  0  0  0  0  0  0
   14.2392   12.8470    5.1754 O   0  0  0  0  0  0  0  0  0  0  0  0
   15.2322   10.9755    4.2250 C   0  0  0  0  0  0  0  0  0  0  0  0
   16.0036    9.9243    4.7310 C   0  0  0  0  0  0  0  0  0  0  0  0
   15.8692    8.6336    4.2168 C   0  0  0  0  0  0  0  0  0  0  0  0
   14.9058    8.3686    3.2447 C   0  0  0  0  0  0  0  0  0  0  0  0
   14.0722    9.3945    2.7867 C   0  0  0  0  0  0  0  0  0  0  0  0
   14.2462   10.6987    3.2647 C   0  0  0  0  0  0  0  0  0  0  0  0
   13.0156    9.0931    1.8641 C   0  0  0  0  0  0  0  0  0  0  0  0
   12.1462    8.8435    1.1387 N   0  0  0  0  0  0  0  0  0  0  0  0
   19.5697   11.7760    6.1910 C   0  0  0  0  0  0  0  0  0  0  0  0
   19.8823   13.0615    5.5941 N   0  0  0  0  0  0  0  0  0  0  0  0
   21.1288   13.6435    5.8016 C   0  0  0  0  0  0  0  0  0  0  0  0
   23.0148   14.6905    4.8506 C   0  0  0  0  0  0  0  0  0  0  0  0
   23.0128   14.4758    7.0442 C   0  0  0  0  0  0  0  0  0  0  0  0
   21.7776   13.8339    7.0585 C   0  0  0  0  0  0  0  0  0  0  0  0
   21.5261   13.5480    8.4402 C   0  0  0  0  0  0  0  0  0  0  0  0
   22.5763   14.0313    9.1927 C   0  0  0  0  0  0  0  0  0  0  0  0
   21.8103   14.1060    4.7154 N   0  0  0  0  0  0  0  0  0  0  0  0
   23.6861   14.9301    5.9807 N   0  0  0  0  0  0  0  0  0  0  0  0
   23.4733   14.5911    8.3269 N   0  0  0  0  0  0  0  0  0  0  0  0
   24.3507   15.0287    8.5691 H   0  0  0  0  0  0  0  0  0  0  0  0
 18 19  1  0  0  0
  1 19  1  0  0  0
  1  2  1  0  0  0
  2  8  1  0  0  0
  3  8  1  0  0  0
  3  4  1  0  0  0
  4  5  1  0  0  0
  4  1  1  0  0  0
  5  6  1  0  0  0
  6  4  1  0  0  0
  7 10  1  0  0  0
 11 12  2  0  0  0
 13 14  2  0  0  0
 14 16  1  0  0  0
 15 10  2  0  0  0
 21 26  2  0  0  0
 22 27  2  0  0  0
 23 24  1  0  0  0
 23 20  2  0  0  0
 25 28  1  0  0  0
 19 20  1  0  0  0
  8  7  1  0  0  0
 28 22  1  0  0  0
  7  9  2  0  0  0
 10 11  1  0  0  0
 12 13  1  0  0  0
 14 15  1  0  0  0
 20 26  1  0  0  0
 21 27  1  0  0  0
 22 23  1  0  0  0
 24 25  2  0  0  0
 16 17  3  0  0  0
 28 29  1  0  0  0
M  END
> <minimizedAffinity>
-9.44442

$$$$
CHEMBL4293188


 29 33  0  0  0  0  0  0  0  0999 V2000
   15.7592   12.7143    3.7315 C   0  0  0  0  0  0  0  0  0  0  0  0
   15.6227   14.2397    3.8871 C   0  0  0  0  0  0  0  0  0  0  0  0
   17.4400   13.5643    5.3192 C   0  0  0  0  0  0  0  0  0  0  0  0
   16.9976   12.3582    4.5288 C   0  0  0  0  0  0  0  0  0  0  0  0
   17.2778   10.9539    5.0394 C   0  0  0  0  0  0  0  0  0  0  0  0
   18.0623   11.4838    3.8810 C   0  0  0  0  0  0  0  0  0  0  0  0
   16.6885   15.8718    5.5623 C   0  0  0  0  0  0  0  0  0  0  0  0
   16.5272   14.6361    4.9641 N   0  0  0  0  0  0  0  0  0  0  0  0
   17.6834   16.1446    6.2354 O   0  0  0  0  0  0  0  0  0  0  0  0
   15.6525   16.9309    5.4296 C   0  0  0  0  0  0  0  0  0  0  0  0
   14.4181   16.8480    6.0821 C   0  0  0  0  0  0  0  0  0  0  0  0
   13.4940   17.8898    5.9878 C   0  0  0  0  0  0  0  0  0  0  0  0
   13.8288   19.0572    5.3033 C   0  0  0  0  0  0  0  0  0  0  0  0
   15.0908   19.1859    4.7136 C   0  0  0  0  0  0  0  0  0  0  0  0
   15.9948   18.1182    4.7633 C   0  0  0  0  0  0  0  0  0  0  0  0
   15.4657   20.4282    4.1015 C   0  0  0  0  0  0  0  0  0  0  0  0
   15.7439   21.4357    3.5995 N   0  0  0  0  0  0  0  0  0  0  0  0
   13.9577   12.2163    5.3873 C   0  0  0  0  0  0  0  0  0  0  0  0
   14.5456   11.9485    4.0876 N   0  0  0  0  0  0  0  0  0  0  0  0
   14.0006   10.9699    3.2626 C   0  0  0  0  0  0  0  0  0  0  0  0
   14.0924    8.7427    2.4950 C   0  0  0  0  0  0  0  0  0  0  0  0
   12.4594    9.9897    1.6972 C   0  0  0  0  0  0  0  0  0  0  0  0
   12.8617   11.1130    2.4144 C   0  0  0  0  0  0  0  0  0  0  0  0
   11.9293   12.1381    2.0484 C   0  0  0  0  0  0  0  0  0  0  0  0
   11.0106   11.6092    1.1659 C   0  0  0  0  0  0  0  0  0  0  0  0
   14.5797    9.7358    3.2611 N   0  0  0  0  0  0  0  0  0  0  0  0
   13.0253    8.7771    1.6915 N   0  0  0  0  0  0  0  0  0  0  0  0
   11.3493   10.3011    0.9614 N   0  0  0  0  0  0  0  0  0  0  0  0
   10.8718    9.6424    0.3630 H   0  0  0  0  0  0  0  0  0  0  0  0
 18 19  1  0  0  0
  1 19  1  0  0  0
  1  2  1  0  0  0
  2  8  1  0  0  0
  3  8  1  0  0  0
  3  4  1  0  0  0
  4  5  1  0  0  0
  4  1  1  0  0  0
  5  6  1  0  0  0
  6  4  1  0  0  0
  7 10  1  0  0  0
 11 12  2  0  0  0
 13 14  2  0  0  0
 14 16  1  0  0  0
 15 10  2  0  0  0
 21 26  2  0  0  0
 22 27  2  0  0  0
 23 24  1  0  0  0
 23 20  2  0  0  0
 25 28  1  0  0  0
 19 20  1  0  0  0
  8  7  1  0  0  0
 28 22  1  0  0  0
  7  9  2  0  0  0
 10 11  1  0  0  0
 12 13  1  0  0  0
 14 15  1  0  0  0
 20 26  1  0  0  0
 21 27  1  0  0  0
 22 23  1  0  0  0
 24 25  2  0  0  0
 16 17  3  0  0  0
 28 29  1  0  0  0
M  END
> <minimizedAffinity>
-9.21069

$$$$
CHEMBL4293188


 29 33  0  0  0  0  0  0  0  0999 V2000
   15.7725   13.2873    3.5320 C   0  0  0  0  0  0  0  0  0  0  0  0
   16.2051   11.8139    3.6397 C   0  0  0  0  0  0  0  0  0  0  0  0
   13.9006   11.8021    2.9334 C   0  0  0  0  0  0  0  0  0  0  0  0
   14.3755   13.2337    2.9478 C   0  0  0  0  0  0  0  0  0  0  0  0
   13.3811   14.3768    3.0737 C   0  0  0  0  0  0  0  0  0  0  0  0
   14.0427   14.1212    1.7564 C   0  0  0  0  0  0  0  0  0  0  0  0
   14.8384    9.6387    3.5572 C   0  0  0  0  0  0  0  0  0  0  0  0
   15.0035   11.0063    3.4419 N   0  0  0  0  0  0  0  0  0  0  0  0
   13.8672    9.0568    3.0719 O   0  0  0  0  0  0  0  0  0  0  0  0
   15.8279    8.8044    4.2902 C   0  0  0  0  0  0  0  0  0  0  0  0
   15.8854    7.4153    4.1381 C   0  0  0  0  0  0  0  0  0  0  0  0
   16.8681    6.6697    4.7914 C   0  0  0  0  0  0  0  0  0  0  0  0
   17.8494    7.3169    5.5408 C   0  0  0  0  0  0  0  0  0  0  0  0
   17.8512    8.7126    5.6360 C   0  0  0  0  0  0  0  0  0  0  0  0
   16.8328    9.4536    5.0248 C   0  0  0  0  0  0  0  0  0  0  0  0
   18.9224    9.3767    6.3216 C   0  0  0  0  0  0  0  0  0  0  0  0
   19.8052    9.8983    6.8629 N   0  0  0  0  0  0  0  0  0  0  0  0
   15.1154   13.5947    5.9213 C   0  0  0  0  0  0  0  0  0  0  0  0
   15.8950   14.0577    4.7880 N   0  0  0  0  0  0  0  0  0  0  0  0
   16.6678   15.2095    4.8956 C   0  0  0  0  0  0  0  0  0  0  0  0
   18.7983   16.1428    5.2796 C   0  0  0  0  0  0  0  0  0  0  0  0
   17.1707   17.5611    4.8351 C   0  0  0  0  0  0  0  0  0  0  0  0
   16.2181   16.5525    4.7194 C   0  0  0  0  0  0  0  0  0  0  0  0
   14.9907   17.2352    4.4336 C   0  0  0  0  0  0  0  0  0  0  0  0
   15.2404   18.5901    4.3673 C   0  0  0  0  0  0  0  0  0  0  0  0
   17.9946   15.0687    5.1751 N   0  0  0  0  0  0  0  0  0  0  0  0
   18.4735   17.4278    5.1107 N   0  0  0  0  0  0  0  0  0  0  0  0
   16.5719   18.7711    4.6161 N   0  0  0  0  0  0  0  0  0  0  0  0
   17.0648   19.6521    4.6421 H   0  0  0  0  0  0  0  0  0  0  0  0
 18 19  1  0  0  0
  1 19  1  0  0  0
  1  2  1  0  0  0
  2  8  1  0  0  0
  3  8  1  0  0  0
  3  4  1  0  0  0
  4  5  1  0  0  0
  4  1  1  0  0  0
  5  6  1  0  0  0
  6  4  1  0  0  0
  7 10  1  0  0  0
 11 12  2  0  0  0
 13 14  2  0  0  0
 14 16  1  0  0  0
 15 10  2  0  0  0
 21 26  2  0  0  0
 22 27  2  0  0  0
 23 24  1  0  0  0
 23 20  2  0  0  0
 25 28  1  0  0  0
 19 20  1  0  0  0
  8  7  1  0  0  0
 28 22  1  0  0  0
  7  9  2  0  0  0
 10 11  1  0  0  0
 12 13  1  0  0  0
 14 15  1  0  0  0
 20 26  1  0  0  0
 21 27  1  0  0  0
 22 23  1  0  0  0
 24 25  2  0  0  0
 16 17  3  0  0  0
 28 29  1  0  0  0
M  END
> <minimizedAffinity>
-9.18634

$$$$
CHEMBL4293188


 29 33  0  0  0  0  0  0  0  0999 V2000
   16.0527   13.5210    3.8369 C   0  0  0  0  0  0  0  0  0  0  0  0
   16.3646   15.0143    4.0425 C   0  0  0  0  0  0  0  0  0  0  0  0
   18.0951   13.7885    5.1880 C   0  0  0  0  0  0  0  0  0  0  0  0
   17.2374   12.7963    4.4430 C   0  0  0  0  0  0  0  0  0  0  0  0
   17.1828   11.3409    4.8790 C   0  0  0  0  0  0  0  0  0  0  0  0
   17.9251   11.7063    3.6325 C   0  0  0  0  0  0  0  0  0  0  0  0
   18.0489   16.1948    5.5838 C   0  0  0  0  0  0  0  0  0  0  0  0
   17.4758   15.0866    4.9886 N   0  0  0  0  0  0  0  0  0  0  0  0
   19.1595   16.1476    6.1147 O   0  0  0  0  0  0  0  0  0  0  0  0
   17.3378   17.5006    5.6217 C   0  0  0  0  0  0  0  0  0  0  0  0
   16.2747   17.7421    6.4979 C   0  0  0  0  0  0  0  0  0  0  0  0
   15.6717   18.9997    6.5528 C   0  0  0  0  0  0  0  0  0  0  0  0
   16.1782   20.0484    5.7868 C   0  0  0  0  0  0  0  0  0  0  0  0
   17.2919   19.8418    4.9657 C   0  0  0  0  0  0  0  0  0  0  0  0
   17.8605   18.5660    4.8716 C   0  0  0  0  0  0  0  0  0  0  0  0
   17.8706   20.9495    4.2611 C   0  0  0  0  0  0  0  0  0  0  0  0
   18.3403   21.8298    3.6704 N   0  0  0  0  0  0  0  0  0  0  0  0
   14.5271   13.1601    5.7805 C   0  0  0  0  0  0  0  0  0  0  0  0
   14.7320   13.0926    4.3451 N   0  0  0  0  0  0  0  0  0  0  0  0
   13.7315   12.5901    3.5195 C   0  0  0  0  0  0  0  0  0  0  0  0
   11.8243   13.0420    2.2094 C   0  0  0  0  0  0  0  0  0  0  0  0
   12.5194   10.9506    2.2430 C   0  0  0  0  0  0  0  0  0  0  0  0
   13.5737   11.2329    3.1072 C   0  0  0  0  0  0  0  0  0  0  0  0
   14.2208    9.9726    3.3239 C   0  0  0  0  0  0  0  0  0  0  0  0
   13.5681    9.0051    2.5886 C   0  0  0  0  0  0  0  0  0  0  0  0
   12.8094   13.4631    3.0235 N   0  0  0  0  0  0  0  0  0  0  0  0
   11.6113   11.8037    1.7548 N   0  0  0  0  0  0  0  0  0  0  0  0
   12.5338    9.6173    1.9383 N   0  0  0  0  0  0  0  0  0  0  0  0
   11.8657    9.1771    1.3220 H   0  0  0  0  0  0  0  0  0  0  0  0
 18 19  1  0  0  0
  1 19  1  0  0  0
  1  2  1  0  0  0
  2  8  1  0  0  0
  3  8  1  0  0  0
  3  4  1  0  0  0
  4  5  1  0  0  0
  4  1  1  0  0  0
  5  6  1  0  0  0
  6  4  1  0  0  0
  7 10  1  0  0  0
 11 12  2  0  0  0
 13 14  2  0  0  0
 14 16  1  0  0  0
 15 10  2  0  0  0
 21 26  2  0  0  0
 22 27  2  0  0  0
 23 24  1  0  0  0
 23 20  2  0  0  0
 25 28  1  0  0  0
 19 20  1  0  0  0
  8  7  1  0  0  0
 28 22  1  0  0  0
  7  9  2  0  0  0
 10 11  1  0  0  0
 12 13  1  0  0  0
 14 15  1  0  0  0
 20 26  1  0  0  0
 21 27  1  0  0  0
 22 23  1  0  0  0
 24 25  2  0  0  0
 16 17  3  0  0  0
 28 29  1  0  0  0
M  END
> <minimizedAffinity>
-9.13780

$$$$
CHEMBL4293188


 29 33  0  0  0  0  0  0  0  0999 V2000
   14.6952   11.5167    4.5361 C   0  0  0  0  0  0  0  0  0  0  0  0
   14.8624   12.9229    5.1396 C   0  0  0  0  0  0  0  0  0  0  0  0
   13.5251   13.1847    3.1515 C   0  0  0  0  0  0  0  0  0  0  0  0
   13.7332   11.7085    3.3812 C   0  0  0  0  0  0  0  0  0  0  0  0
   13.6151   10.7228    2.2298 C   0  0  0  0  0  0  0  0  0  0  0  0
   12.5335   10.7788    3.2620 C   0  0  0  0  0  0  0  0  0  0  0  0
   14.3032   15.2471    4.1954 C   0  0  0  0  0  0  0  0  0  0  0  0
   14.2957   13.8649    4.1770 N   0  0  0  0  0  0  0  0  0  0  0  0
   13.5366   15.9119    3.4970 O   0  0  0  0  0  0  0  0  0  0  0  0
   15.2546   15.9990    5.0568 C   0  0  0  0  0  0  0  0  0  0  0  0
   14.8296   16.7279    6.1722 C   0  0  0  0  0  0  0  0  0  0  0  0
   15.7559   17.3689    6.9964 C   0  0  0  0  0  0  0  0  0  0  0  0
   17.1210   17.2213    6.7554 C   0  0  0  0  0  0  0  0  0  0  0  0
   17.5627   16.4290    5.6903 C   0  0  0  0  0  0  0  0  0  0  0  0
   16.6306   15.8321    4.8333 C   0  0  0  0  0  0  0  0  0  0  0  0
   18.9673   16.1975    5.5116 C   0  0  0  0  0  0  0  0  0  0  0  0
   20.0971   15.9861    5.3591 N   0  0  0  0  0  0  0  0  0  0  0  0
   16.9869   11.6546    3.5541 C   0  0  0  0  0  0  0  0  0  0  0  0
   15.9638   10.8424    4.1867 N   0  0  0  0  0  0  0  0  0  0  0  0
   16.1774    9.4827    4.3893 C   0  0  0  0  0  0  0  0  0  0  0  0
   15.5457    7.2732    3.8635 C   0  0  0  0  0  0  0  0  0  0  0  0
   17.2408    7.5055    5.2530 C   0  0  0  0  0  0  0  0  0  0  0  0
   17.1761    8.8958    5.2229 C   0  0  0  0  0  0  0  0  0  0  0  0
   18.2175    9.3329    6.1053 C   0  0  0  0  0  0  0  0  0  0  0  0
   18.8698    8.2257    6.6064 C   0  0  0  0  0  0  0  0  0  0  0  0
   15.3815    8.6010    3.7204 N   0  0  0  0  0  0  0  0  0  0  0  0
   16.4611    6.6362    4.5994 N   0  0  0  0  0  0  0  0  0  0  0  0
   18.2612    7.1216    6.0789 N   0  0  0  0  0  0  0  0  0  0  0  0
   18.5055    6.1577    6.2556 H   0  0  0  0  0  0  0  0  0  0  0  0
 18 19  1  0  0  0
  1 19  1  0  0  0
  1  2  1  0  0  0
  2  8  1  0  0  0
  3  8  1  0  0  0
  3  4  1  0  0  0
  4  5  1  0  0  0
  4  1  1  0  0  0
  5  6  1  0  0  0
  6  4  1  0  0  0
  7 10  1  0  0  0
 11 12  2  0  0  0
 13 14  2  0  0  0
 14 16  1  0  0  0
 15 10  2  0  0  0
 21 26  2  0  0  0
 22 27  2  0  0  0
 23 24  1  0  0  0
 23 20  2  0  0  0
 25 28  1  0  0  0
 19 20  1  0  0  0
  8  7  1  0  0  0
 28 22  1  0  0  0
  7  9  2  0  0  0
 10 11  1  0  0  0
 12 13  1  0  0  0
 14 15  1  0  0  0
 20 26  1  0  0  0
 21 27  1  0  0  0
 22 23  1  0  0  0
 24 25  2  0  0  0
 16 17  3  0  0  0
 28 29  1  0  0  0
M  END
> <minimizedAffinity>
-9.07359

$$$$
CHEMBL4293188


 29 33  0  0  0  0  0  0  0  0999 V2000
   15.9965   13.8095    3.7989 C   0  0  0  0  0  0  0  0  0  0  0  0
   15.8652   15.3382    3.9226 C   0  0  0  0  0  0  0  0  0  0  0  0
   17.9164   14.7339    5.0348 C   0  0  0  0  0  0  0  0  0  0  0  0
   17.3612   13.4951    4.3775 C   0  0  0  0  0  0  0  0  0  0  0  0
   17.7490   12.1135    4.8796 C   0  0  0  0  0  0  0  0  0  0  0  0
   18.3093   12.6073    3.5833 C   0  0  0  0  0  0  0  0  0  0  0  0
   17.1827   17.0417    5.3256 C   0  0  0  0  0  0  0  0  0  0  0  0
   16.9385   15.7831    4.8088 N   0  0  0  0  0  0  0  0  0  0  0  0
   18.2760   17.3488    5.8028 O   0  0  0  0  0  0  0  0  0  0  0  0
   16.1228   18.0852    5.3405 C   0  0  0  0  0  0  0  0  0  0  0  0
   16.2054   19.2387    4.5540 C   0  0  0  0  0  0  0  0  0  0  0  0
   15.1629   20.1667    4.5432 C   0  0  0  0  0  0  0  0  0  0  0  0
   13.9951   19.9098    5.2599 C   0  0  0  0  0  0  0  0  0  0  0  0
   13.8667   18.7217    5.9872 C   0  0  0  0  0  0  0  0  0  0  0  0
   14.9351   17.8187    6.0400 C   0  0  0  0  0  0  0  0  0  0  0  0
   12.6241   18.4167    6.6364 C   0  0  0  0  0  0  0  0  0  0  0  0
   11.6330   18.1654    7.1832 N   0  0  0  0  0  0  0  0  0  0  0  0
   14.6653   13.1898    5.8186 C   0  0  0  0  0  0  0  0  0  0  0  0
   14.8767   13.0460    4.3898 N   0  0  0  0  0  0  0  0  0  0  0  0
   14.0801   12.1783    3.6496 C   0  0  0  0  0  0  0  0  0  0  0  0
   12.2077   11.9141    2.2418 C   0  0  0  0  0  0  0  0  0  0  0  0
   13.3793   10.0967    2.6687 C   0  0  0  0  0  0  0  0  0  0  0  0
   14.2782   10.7741    3.4878 C   0  0  0  0  0  0  0  0  0  0  0  0
   15.1930    9.7689    3.9427 C   0  0  0  0  0  0  0  0  0  0  0  0
   14.8389    8.5591    3.3827 C   0  0  0  0  0  0  0  0  0  0  0  0
   13.0095   12.6984    2.9852 N   0  0  0  0  0  0  0  0  0  0  0  0
   12.3265   10.6026    2.0157 N   0  0  0  0  0  0  0  0  0  0  0  0
   13.7317    8.7763    2.6117 N   0  0  0  0  0  0  0  0  0  0  0  0
   13.2290    8.0859    2.0726 H   0  0  0  0  0  0  0  0  0  0  0  0
 18 19  1  0  0  0
  1 19  1  0  0  0
  1  2  1  0  0  0
  2  8  1  0  0  0
  3  8  1  0  0  0
  3  4  1  0  0  0
  4  5  1  0  0  0
  4  1  1  0  0  0
  5  6  1  0  0  0
  6  4  1  0  0  0
  7 10  1  0  0  0
 11 12  2  0  0  0
 13 14  2  0  0  0
 14 16  1  0  0  0
 15 10  2  0  0  0
 21 26  2  0  0  0
 22 27  2  0  0  0
 23 24  1  0  0  0
 23 20  2  0  0  0
 25 28  1  0  0  0
 19 20  1  0  0  0
  8  7  1  0  0  0
 28 22  1  0  0  0
  7  9  2  0  0  0
 10 11  1  0  0  0
 12 13  1  0  0  0
 14 15  1  0  0  0
 20 26  1  0  0  0
 21 27  1  0  0  0
 22 23  1  0  0  0
 24 25  2  0  0  0
 16 17  3  0  0  0
 28 29  1  0  0  0
M  END
> <minimizedAffinity>
-8.97076

$$$$
CHEMBL4290647


 27 31  0  0  0  0  0  0  0  0999 V2000
   16.0572   14.2943    5.7164 C   0  0  0  0  0  0  0  0  0  0  0  0
   15.4974   12.9533    5.2065 C   0  0  0  0  0  0  0  0  0  0  0  0
   17.8917   12.8603    4.9028 C   0  0  0  0  0  0  0  0  0  0  0  0
   17.5650   14.1467    5.6194 C   0  0  0  0  0  0  0  0  0  0  0  0
   18.4331   14.5819    6.7910 C   0  0  0  0  0  0  0  0  0  0  0  0
   18.5021   15.3398    5.5032 C   0  0  0  0  0  0  0  0  0  0  0  0
   16.5869   11.0430    3.9147 C   0  0  0  0  0  0  0  0  0  0  0  0
   16.6198   12.2280    4.6193 N   0  0  0  0  0  0  0  0  0  0  0  0
   17.5995   10.4268    3.5867 O   0  0  0  0  0  0  0  0  0  0  0  0
   15.2762   10.4623    3.5522 C   0  0  0  0  0  0  0  0  0  0  0  0
   15.1939    9.0871    3.3137 C   0  0  0  0  0  0  0  0  0  0  0  0
   13.9768    8.5221    2.9308 C   0  0  0  0  0  0  0  0  0  0  0  0
   12.8503    9.3316    2.7734 C   0  0  0  0  0  0  0  0  0  0  0  0
   12.9396   10.7084    2.9851 C   0  0  0  0  0  0  0  0  0  0  0  0
   14.1559   11.2779    3.3633 C   0  0  0  0  0  0  0  0  0  0  0  0
   15.5528   15.4887    3.5811 C   0  0  0  0  0  0  0  0  0  0  0  0
   15.5253   15.4900    5.0315 N   0  0  0  0  0  0  0  0  0  0  0  0
   14.9239   16.5322    5.7286 C   0  0  0  0  0  0  0  0  0  0  0  0
   13.6891   17.1933    7.6257 C   0  0  0  0  0  0  0  0  0  0  0  0
   14.2100   18.7784    6.1864 C   0  0  0  0  0  0  0  0  0  0  0  0
   14.8786   17.9007    5.3377 C   0  0  0  0  0  0  0  0  0  0  0  0
   15.3494   18.7134    4.2568 C   0  0  0  0  0  0  0  0  0  0  0  0
   14.9568   20.0168    4.4802 C   0  0  0  0  0  0  0  0  0  0  0  0
   14.3099   16.2405    6.9100 N   0  0  0  0  0  0  0  0  0  0  0  0
   13.5944   18.4944    7.3406 N   0  0  0  0  0  0  0  0  0  0  0  0
   14.2640   20.0380    5.6582 N   0  0  0  0  0  0  0  0  0  0  0  0
   13.8445   20.8450    6.0968 H   0  0  0  0  0  0  0  0  0  0  0  0
 16 17  1  0  0  0
  1 17  1  0  0  0
  1  2  1  0  0  0
  2  8  1  0  0  0
  3  8  1  0  0  0
  3  4  1  0  0  0
  4  5  1  0  0  0
  4  1  1  0  0  0
  5  6  1  0  0  0
  6  4  1  0  0  0
  7 10  1  0  0  0
 11 12  2  0  0  0
 13 14  2  0  0  0
 15 10  2  0  0  0
 19 24  2  0  0  0
 20 25  2  0  0  0
 21 22  1  0  0  0
 21 18  2  0  0  0
 23 26  1  0  0  0
 17 18  1  0  0  0
  8  7  1  0  0  0
 26 20  1  0  0  0
  7  9  2  0  0  0
 10 11  1  0  0  0
 12 13  1  0  0  0
 14 15  1  0  0  0
 18 24  1  0  0  0
 19 25  1  0  0  0
 20 21  1  0  0  0
 22 23  2  0  0  0
 26 27  1  0  0  0
M  END
> <minimizedAffinity>
-9.64346

$$$$
CHEMBL4290647


 27 31  0  0  0  0  0  0  0  0999 V2000
   15.2062   13.7733    3.5482 C   0  0  0  0  0  0  0  0  0  0  0  0
   14.8361   15.1471    4.1375 C   0  0  0  0  0  0  0  0  0  0  0  0
   17.2321   14.9292    4.3502 C   0  0  0  0  0  0  0  0  0  0  0  0
   16.7231   13.7289    3.5918 C   0  0  0  0  0  0  0  0  0  0  0  0
   17.4897   13.2468    2.3690 C   0  0  0  0  0  0  0  0  0  0  0  0
   17.5070   12.4252    3.6190 C   0  0  0  0  0  0  0  0  0  0  0  0
   16.1990   16.8441    5.4671 C   0  0  0  0  0  0  0  0  0  0  0  0
   16.0595   15.6993    4.7109 N   0  0  0  0  0  0  0  0  0  0  0  0
   17.2912   17.3142    5.7812 O   0  0  0  0  0  0  0  0  0  0  0  0
   14.9841   17.5640    5.9060 C   0  0  0  0  0  0  0  0  0  0  0  0
   14.3066   17.1081    7.0409 C   0  0  0  0  0  0  0  0  0  0  0  0
   13.1354   17.7460    7.4513 C   0  0  0  0  0  0  0  0  0  0  0  0
   12.6365   18.8265    6.7214 C   0  0  0  0  0  0  0  0  0  0  0  0
   13.2985   19.2639    5.5729 C   0  0  0  0  0  0  0  0  0  0  0  0
   14.4673   18.6256    5.1565 C   0  0  0  0  0  0  0  0  0  0  0  0
   14.4952   12.6265    5.6505 C   0  0  0  0  0  0  0  0  0  0  0  0
   14.5524   12.6209    4.2010 N   0  0  0  0  0  0  0  0  0  0  0  0
   13.9209   11.6205    3.4701 C   0  0  0  0  0  0  0  0  0  0  0  0
   12.1304   11.0338    2.0520 C   0  0  0  0  0  0  0  0  0  0  0  0
   13.5311    9.4204    2.5911 C   0  0  0  0  0  0  0  0  0  0  0  0
   14.3204   10.2571    3.3751 C   0  0  0  0  0  0  0  0  0  0  0  0
   15.3685    9.4195    3.8755 C   0  0  0  0  0  0  0  0  0  0  0  0
   15.1800    8.1405    3.3943 C   0  0  0  0  0  0  0  0  0  0  0  0
   12.8045   11.9537    2.7625 N   0  0  0  0  0  0  0  0  0  0  0  0
   12.4269    9.7401    1.9053 N   0  0  0  0  0  0  0  0  0  0  0  0
   14.0571    8.1590    2.6152 N   0  0  0  0  0  0  0  0  0  0  0  0
   13.6532    7.3770    2.1205 H   0  0  0  0  0  0  0  0  0  0  0  0
 16 17  1  0  0  0
  1 17  1  0  0  0
  1  2  1  0  0  0
  2  8  1  0  0  0
  3  8  1  0  0  0
  3  4  1  0  0  0
  4  5  1  0  0  0
  4  1  1  0  0  0
  5  6  1  0  0  0
  6  4  1  0  0  0
  7 10  1  0  0  0
 11 12  2  0  0  0
 13 14  2  0  0  0
 15 10  2  0  0  0
 19 24  2  0  0  0
 20 25  2  0  0  0
 21 22  1  0  0  0
 21 18  2  0  0  0
 23 26  1  0  0  0
 17 18  1  0  0  0
  8  7  1  0  0  0
 26 20  1  0  0  0
  7  9  2  0  0  0
 10 11  1  0  0  0
 12 13  1  0  0  0
 14 15  1  0  0  0
 18 24  1  0  0  0
 19 25  1  0  0  0
 20 21  1  0  0  0
 22 23  2  0  0  0
 26 27  1  0  0  0
M  END
> <minimizedAffinity>
-9.61306

$$$$
CHEMBL4290647


 27 31  0  0  0  0  0  0  0  0999 V2000
   15.7870   14.3319    3.5744 C   0  0  0  0  0  0  0  0  0  0  0  0
   14.9647   13.1869    2.9543 C   0  0  0  0  0  0  0  0  0  0  0  0
   13.4835   15.0876    3.1197 C   0  0  0  0  0  0  0  0  0  0  0  0
   14.8591   15.5332    3.5490 C   0  0  0  0  0  0  0  0  0  0  0  0
   15.3887   16.8734    3.0602 C   0  0  0  0  0  0  0  0  0  0  0  0
   15.0133   16.7115    4.4992 C   0  0  0  0  0  0  0  0  0  0  0  0
   12.4694   12.9560    2.4798 C   0  0  0  0  0  0  0  0  0  0  0  0
   13.5911   13.6690    2.8477 N   0  0  0  0  0  0  0  0  0  0  0  0
   11.3768   13.4808    2.2715 O   0  0  0  0  0  0  0  0  0  0  0  0
   12.5792   11.4924    2.2994 C   0  0  0  0  0  0  0  0  0  0  0  0
   11.8588   10.8874    1.2651 C   0  0  0  0  0  0  0  0  0  0  0  0
   11.9144    9.5029    1.0999 C   0  0  0  0  0  0  0  0  0  0  0  0
   12.6761    8.7257    1.9744 C   0  0  0  0  0  0  0  0  0  0  0  0
   13.3732    9.3274    3.0234 C   0  0  0  0  0  0  0  0  0  0  0  0
   13.3164   10.7109    3.1949 C   0  0  0  0  0  0  0  0  0  0  0  0
   15.4753   14.2002    6.0495 C   0  0  0  0  0  0  0  0  0  0  0  0
   16.3539   14.0387    4.9065 N   0  0  0  0  0  0  0  0  0  0  0  0
   17.6373   13.5273    5.0650 C   0  0  0  0  0  0  0  0  0  0  0  0
   19.9221   13.9873    5.4242 C   0  0  0  0  0  0  0  0  0  0  0  0
   19.3666   11.8670    5.1978 C   0  0  0  0  0  0  0  0  0  0  0  0
   18.0159   12.1553    5.0244 C   0  0  0  0  0  0  0  0  0  0  0  0
   17.3828   10.8828    4.8494 C   0  0  0  0  0  0  0  0  0  0  0  0
   18.3454    9.8971    4.9165 C   0  0  0  0  0  0  0  0  0  0  0  0
   18.6538   14.4085    5.2844 N   0  0  0  0  0  0  0  0  0  0  0  0
   20.3700   12.7296    5.4003 N   0  0  0  0  0  0  0  0  0  0  0  0
   19.5467   10.5138    5.1282 N   0  0  0  0  0  0  0  0  0  0  0  0
   20.4465   10.0655    5.2229 H   0  0  0  0  0  0  0  0  0  0  0  0
 16 17  1  0  0  0
  1 17  1  0  0  0
  1  2  1  0  0  0
  2  8  1  0  0  0
  3  8  1  0  0  0
  3  4  1  0  0  0
  4  5  1  0  0  0
  4  1  1  0  0  0
  5  6  1  0  0  0
  6  4  1  0  0  0
  7 10  1  0  0  0
 11 12  2  0  0  0
 13 14  2  0  0  0
 15 10  2  0  0  0
 19 24  2  0  0  0
 20 25  2  0  0  0
 21 22  1  0  0  0
 21 18  2  0  0  0
 23 26  1  0  0  0
 17 18  1  0  0  0
  8  7  1  0  0  0
 26 20  1  0  0  0
  7  9  2  0  0  0
 10 11  1  0  0  0
 12 13  1  0  0  0
 14 15  1  0  0  0
 18 24  1  0  0  0
 19 25  1  0  0  0
 20 21  1  0  0  0
 22 23  2  0  0  0
 26 27  1  0  0  0
M  END
> <minimizedAffinity>
-9.59444

$$$$
CHEMBL4290647


 27 31  0  0  0  0  0  0  0  0999 V2000
   16.0796   14.5975    5.2173 C   0  0  0  0  0  0  0  0  0  0  0  0
   15.5167   13.2070    4.8689 C   0  0  0  0  0  0  0  0  0  0  0  0
   17.9197   12.9771    4.9490 C   0  0  0  0  0  0  0  0  0  0  0  0
   17.5741   14.3822    5.3750 C   0  0  0  0  0  0  0  0  0  0  0  0
   18.2924   14.9905    6.5706 C   0  0  0  0  0  0  0  0  0  0  0  0
   18.5894   15.5012    5.1963 C   0  0  0  0  0  0  0  0  0  0  0  0
   16.6594   11.0583    4.1056 C   0  0  0  0  0  0  0  0  0  0  0  0
   16.6645   12.3490    4.5914 N   0  0  0  0  0  0  0  0  0  0  0  0
   17.6686   10.3581    4.0451 O   0  0  0  0  0  0  0  0  0  0  0  0
   15.3802   10.4681    3.6562 C   0  0  0  0  0  0  0  0  0  0  0  0
   15.3248    9.0928    3.4107 C   0  0  0  0  0  0  0  0  0  0  0  0
   14.1403    8.5190    2.9471 C   0  0  0  0  0  0  0  0  0  0  0  0
   13.0203    9.3200    2.7169 C   0  0  0  0  0  0  0  0  0  0  0  0
   13.0843   10.6970    2.9362 C   0  0  0  0  0  0  0  0  0  0  0  0
   14.2683   11.2753    3.3950 C   0  0  0  0  0  0  0  0  0  0  0  0
   15.7482   15.3322    2.8528 C   0  0  0  0  0  0  0  0  0  0  0  0
   15.7242   15.6681    4.2638 N   0  0  0  0  0  0  0  0  0  0  0  0
   15.2808   16.9159    4.6884 C   0  0  0  0  0  0  0  0  0  0  0  0
   15.1784   19.2326    4.2598 C   0  0  0  0  0  0  0  0  0  0  0  0
   14.2186   18.5293    6.1144 C   0  0  0  0  0  0  0  0  0  0  0  0
   14.5536   17.1988    5.8795 C   0  0  0  0  0  0  0  0  0  0  0  0
   14.0175   16.4771    6.9941 C   0  0  0  0  0  0  0  0  0  0  0  0
   13.3982   17.3709    7.8428 C   0  0  0  0  0  0  0  0  0  0  0  0
   15.5563   17.9940    3.9011 N   0  0  0  0  0  0  0  0  0  0  0  0
   14.4983   19.5926    5.3510 N   0  0  0  0  0  0  0  0  0  0  0  0
   13.5307   18.6150    7.2925 N   0  0  0  0  0  0  0  0  0  0  0  0
   13.1845   19.4833    7.6741 H   0  0  0  0  0  0  0  0  0  0  0  0
 16 17  1  0  0  0
  1 17  1  0  0  0
  1  2  1  0  0  0
  2  8  1  0  0  0
  3  8  1  0  0  0
  3  4  1  0  0  0
  4  5  1  0  0  0
  4  1  1  0  0  0
  5  6  1  0  0  0
  6  4  1  0  0  0
  7 10  1  0  0  0
 11 12  2  0  0  0
 13 14  2  0  0  0
 15 10  2  0  0  0
 19 24  2  0  0  0
 20 25  2  0  0  0
 21 22  1  0  0  0
 21 18  2  0  0  0
 23 26  1  0  0  0
 17 18  1  0  0  0
  8  7  1  0  0  0
 26 20  1  0  0  0
  7  9  2  0  0  0
 10 11  1  0  0  0
 12 13  1  0  0  0
 14 15  1  0  0  0
 18 24  1  0  0  0
 19 25  1  0  0  0
 20 21  1  0  0  0
 22 23  2  0  0  0
 26 27  1  0  0  0
M  END
> <minimizedAffinity>
-9.44541

$$$$
CHEMBL4290647


 27 31  0  0  0  0  0  0  0  0999 V2000
   15.0886   13.4701    3.4285 C   0  0  0  0  0  0  0  0  0  0  0  0
   14.7134   14.8266    4.0535 C   0  0  0  0  0  0  0  0  0  0  0  0
   17.1182   14.6468    4.1902 C   0  0  0  0  0  0  0  0  0  0  0  0
   16.6067   13.4513    3.4257 C   0  0  0  0  0  0  0  0  0  0  0  0
   17.3439   13.0042    2.1719 C   0  0  0  0  0  0  0  0  0  0  0  0
   17.4130   12.1612    3.4057 C   0  0  0  0  0  0  0  0  0  0  0  0
   16.0872   16.5234    5.3721 C   0  0  0  0  0  0  0  0  0  0  0  0
   15.9442   15.3898    4.5998 N   0  0  0  0  0  0  0  0  0  0  0  0
   17.1804   17.0068    5.6618 O   0  0  0  0  0  0  0  0  0  0  0  0
   14.8743   17.2142    5.8603 C   0  0  0  0  0  0  0  0  0  0  0  0
   14.3616   18.2792    5.1134 C   0  0  0  0  0  0  0  0  0  0  0  0
   13.2419   18.9727    5.5743 C   0  0  0  0  0  0  0  0  0  0  0  0
   12.6462   18.6113    6.7841 C   0  0  0  0  0  0  0  0  0  0  0  0
   13.1749   17.5656    7.5427 C   0  0  0  0  0  0  0  0  0  0  0  0
   14.2974   16.8729    7.0877 C   0  0  0  0  0  0  0  0  0  0  0  0
   14.3527   12.3280    5.5248 C   0  0  0  0  0  0  0  0  0  0  0  0
   14.4745   12.2951    4.0796 N   0  0  0  0  0  0  0  0  0  0  0  0
   13.9353   11.2439    3.3461 C   0  0  0  0  0  0  0  0  0  0  0  0
   14.0679    8.9628    2.7631 C   0  0  0  0  0  0  0  0  0  0  0  0
   12.4492   10.1277    1.8261 C   0  0  0  0  0  0  0  0  0  0  0  0
   12.8132   11.3060    2.4718 C   0  0  0  0  0  0  0  0  0  0  0  0
   11.8699   12.2846    2.0212 C   0  0  0  0  0  0  0  0  0  0  0  0
   10.9955   11.6829    1.1402 C   0  0  0  0  0  0  0  0  0  0  0  0
   14.5216   10.0186    3.4595 N   0  0  0  0  0  0  0  0  0  0  0  0
   13.0297    8.9256    1.9242 N   0  0  0  0  0  0  0  0  0  0  0  0
   11.3630   10.3709    1.0326 N   0  0  0  0  0  0  0  0  0  0  0  0
   10.9198    9.6651    0.4626 H   0  0  0  0  0  0  0  0  0  0  0  0
 16 17  1  0  0  0
  1 17  1  0  0  0
  1  2  1  0  0  0
  2  8  1  0  0  0
  3  8  1  0  0  0
  3  4  1  0  0  0
  4  5  1  0  0  0
  4  1  1  0  0  0
  5  6  1  0  0  0
  6  4  1  0  0  0
  7 10  1  0  0  0
 11 12  2  0  0  0
 13 14  2  0  0  0
 15 10  2  0  0  0
 19 24  2  0  0  0
 20 25  2  0  0  0
 21 22  1  0  0  0
 21 18  2  0  0  0
 23 26  1  0  0  0
 17 18  1  0  0  0
  8  7  1  0  0  0
 26 20  1  0  0  0
  7  9  2  0  0  0
 10 11  1  0  0  0
 12 13  1  0  0  0
 14 15  1  0  0  0
 18 24  1  0  0  0
 19 25  1  0  0  0
 20 21  1  0  0  0
 22 23  2  0  0  0
 26 27  1  0  0  0
M  END
> <minimizedAffinity>
-9.41957

$$$$
CHEMBL4290647


 27 31  0  0  0  0  0  0  0  0999 V2000
   17.0326   15.0235    5.6594 C   0  0  0  0  0  0  0  0  0  0  0  0
   16.9687   13.4872    5.5737 C   0  0  0  0  0  0  0  0  0  0  0  0
   19.3048   14.0875    5.4480 C   0  0  0  0  0  0  0  0  0  0  0  0
   18.5151   15.3481    5.6979 C   0  0  0  0  0  0  0  0  0  0  0  0
   19.0311   16.3548    6.7157 C   0  0  0  0  0  0  0  0  0  0  0  0
   19.0738   16.6936    5.2592 C   0  0  0  0  0  0  0  0  0  0  0  0
   18.7473   11.7449    5.0206 C   0  0  0  0  0  0  0  0  0  0  0  0
   18.3285   13.0263    5.3113 N   0  0  0  0  0  0  0  0  0  0  0  0
   19.9324   11.4211    4.9627 O   0  0  0  0  0  0  0  0  0  0  0  0
   17.7315   10.6951    4.7904 C   0  0  0  0  0  0  0  0  0  0  0  0
   17.8107    9.5106    5.5290 C   0  0  0  0  0  0  0  0  0  0  0  0
   16.8879    8.4891    5.3009 C   0  0  0  0  0  0  0  0  0  0  0  0
   15.8988    8.6464    4.3283 C   0  0  0  0  0  0  0  0  0  0  0  0
   15.8370    9.8182    3.5723 C   0  0  0  0  0  0  0  0  0  0  0  0
   16.7609   10.8400    3.7939 C   0  0  0  0  0  0  0  0  0  0  0  0
   16.1689   15.0733    3.3158 C   0  0  0  0  0  0  0  0  0  0  0  0
   16.2889   15.7360    4.6007 N   0  0  0  0  0  0  0  0  0  0  0  0
   15.6361   16.9401    4.8414 C   0  0  0  0  0  0  0  0  0  0  0  0
   15.2490   19.1579    4.1394 C   0  0  0  0  0  0  0  0  0  0  0  0
   14.2276   18.5143    5.9828 C   0  0  0  0  0  0  0  0  0  0  0  0
   14.7674   17.2322    5.9311 C   0  0  0  0  0  0  0  0  0  0  0  0
   14.2358   16.5576    7.0768 C   0  0  0  0  0  0  0  0  0  0  0  0
   13.4195   17.4311    7.7650 C   0  0  0  0  0  0  0  0  0  0  0  0
   15.8298   17.9599    3.9579 N   0  0  0  0  0  0  0  0  0  0  0  0
   14.4252   19.5227    5.1250 N   0  0  0  0  0  0  0  0  0  0  0  0
   13.4266   18.6171    7.0857 N   0  0  0  0  0  0  0  0  0  0  0  0
   12.9271   19.4583    7.3354 H   0  0  0  0  0  0  0  0  0  0  0  0
 16 17  1  0  0  0
  1 17  1  0  0  0
  1  2  1  0  0  0
  2  8  1  0  0  0
  3  8  1  0  0  0
  3  4  1  0  0  0
  4  5  1  0  0  0
  4  1  1  0  0  0
  5  6  1  0  0  0
  6  4  1  0  0  0
  7 10  1  0  0  0
 11 12  2  0  0  0
 13 14  2  0  0  0
 15 10  2  0  0  0
 19 24  2  0  0  0
 20 25  2  0  0  0
 21 22  1  0  0  0
 21 18  2  0  0  0
 23 26  1  0  0  0
 17 18  1  0  0  0
  8  7  1  0  0  0
 26 20  1  0  0  0
  7  9  2  0  0  0
 10 11  1  0  0  0
 12 13  1  0  0  0
 14 15  1  0  0  0
 18 24  1  0  0  0
 19 25  1  0  0  0
 20 21  1  0  0  0
 22 23  2  0  0  0
 26 27  1  0  0  0
M  END
> <minimizedAffinity>
-9.11001

$$$$
CHEMBL4290647


 27 31  0  0  0  0  0  0  0  0999 V2000
   15.6955   14.6646    3.8993 C   0  0  0  0  0  0  0  0  0  0  0  0
   15.1135   13.3695    3.3030 C   0  0  0  0  0  0  0  0  0  0  0  0
   13.4557   15.0920    2.9588 C   0  0  0  0  0  0  0  0  0  0  0  0
   14.6800   15.7397    3.5563 C   0  0  0  0  0  0  0  0  0  0  0  0
   15.1629   17.0685    2.9939 C   0  0  0  0  0  0  0  0  0  0  0  0
   14.5442   17.0274    4.3553 C   0  0  0  0  0  0  0  0  0  0  0  0
   12.7822   12.7988    2.4403 C   0  0  0  0  0  0  0  0  0  0  0  0
   13.7444   13.6739    2.8988 N   0  0  0  0  0  0  0  0  0  0  0  0
   11.7028   13.1666    1.9794 O   0  0  0  0  0  0  0  0  0  0  0  0
   13.0602   11.3468    2.4759 C   0  0  0  0  0  0  0  0  0  0  0  0
   12.2681   10.4923    1.7032 C   0  0  0  0  0  0  0  0  0  0  0  0
   12.4848    9.1147    1.7512 C   0  0  0  0  0  0  0  0  0  0  0  0
   13.4804    8.5932    2.5795 C   0  0  0  0  0  0  0  0  0  0  0  0
   14.2526    9.4447    3.3713 C   0  0  0  0  0  0  0  0  0  0  0  0
   14.0358   10.8224    3.3298 C   0  0  0  0  0  0  0  0  0  0  0  0
   15.1447   13.8151    6.1831 C   0  0  0  0  0  0  0  0  0  0  0  0
   16.0306   14.5911    5.3360 N   0  0  0  0  0  0  0  0  0  0  0  0
   17.1975   15.1460    5.8500 C   0  0  0  0  0  0  0  0  0  0  0  0
   18.1821   16.9050    7.0736 C   0  0  0  0  0  0  0  0  0  0  0  0
   19.5465   15.3574    6.2998 C   0  0  0  0  0  0  0  0  0  0  0  0
   18.5171   14.6298    5.7094 C   0  0  0  0  0  0  0  0  0  0  0  0
   19.1582   13.5024    5.1022 C   0  0  0  0  0  0  0  0  0  0  0  0
   20.5151   13.5869    5.3357 C   0  0  0  0  0  0  0  0  0  0  0  0
   17.0943   16.3009    6.5665 N   0  0  0  0  0  0  0  0  0  0  0  0
   19.4515   16.4986    6.9929 N   0  0  0  0  0  0  0  0  0  0  0  0
   20.7337   14.7219    6.0651 N   0  0  0  0  0  0  0  0  0  0  0  0
   21.6244   15.0649    6.3947 H   0  0  0  0  0  0  0  0  0  0  0  0
 16 17  1  0  0  0
  1 17  1  0  0  0
  1  2  1  0  0  0
  2  8  1  0  0  0
  3  8  1  0  0  0
  3  4  1  0  0  0
  4  5  1  0  0  0
  4  1  1  0  0  0
  5  6  1  0  0  0
  6  4  1  0  0  0
  7 10  1  0  0  0
 11 12  2  0  0  0
 13 14  2  0  0  0
 15 10  2  0  0  0
 19 24  2  0  0  0
 20 25  2  0  0  0
 21 22  1  0  0  0
 21 18  2  0  0  0
 23 26  1  0  0  0
 17 18  1  0  0  0
  8  7  1  0  0  0
 26 20  1  0  0  0
  7  9  2  0  0  0
 10 11  1  0  0  0
 12 13  1  0  0  0
 14 15  1  0  0  0
 18 24  1  0  0  0
 19 25  1  0  0  0
 20 21  1  0  0  0
 22 23  2  0  0  0
 26 27  1  0  0  0
M  END
> <minimizedAffinity>
-9.07372

$$$$
CHEMBL4290647


 27 31  0  0  0  0  0  0  0  0999 V2000
   15.8942   13.9588    3.6503 C   0  0  0  0  0  0  0  0  0  0  0  0
   16.0495   12.4267    3.6673 C   0  0  0  0  0  0  0  0  0  0  0  0
   13.7918   12.8821    2.9401 C   0  0  0  0  0  0  0  0  0  0  0  0
   14.5099   14.2015    3.0762 C   0  0  0  0  0  0  0  0  0  0  0  0
   14.3256   15.2588    1.9975 C   0  0  0  0  0  0  0  0  0  0  0  0
   13.7184   15.4722    3.3479 C   0  0  0  0  0  0  0  0  0  0  0  0
   14.3444   10.5471    3.4133 C   0  0  0  0  0  0  0  0  0  0  0  0
   14.7327   11.8698    3.3736 N   0  0  0  0  0  0  0  0  0  0  0  0
   13.2535   10.1534    3.0038 O   0  0  0  0  0  0  0  0  0  0  0  0
   15.2863    9.5407    3.9487 C   0  0  0  0  0  0  0  0  0  0  0  0
   15.1110    8.2002    3.5920 C   0  0  0  0  0  0  0  0  0  0  0  0
   15.9622    7.2268    4.1165 C   0  0  0  0  0  0  0  0  0  0  0  0
   16.9755    7.5912    5.0050 C   0  0  0  0  0  0  0  0  0  0  0  0
   17.1328    8.9259    5.3820 C   0  0  0  0  0  0  0  0  0  0  0  0
   16.2807    9.9016    4.8636 C   0  0  0  0  0  0  0  0  0  0  0  0
   15.3147   14.1924    6.0690 C   0  0  0  0  0  0  0  0  0  0  0  0
   16.1307   14.6215    4.9489 N   0  0  0  0  0  0  0  0  0  0  0  0
   17.1582   15.5408    5.1310 C   0  0  0  0  0  0  0  0  0  0  0  0
   19.4593   15.8896    5.5108 C   0  0  0  0  0  0  0  0  0  0  0  0
   18.1999   17.6916    5.3615 C   0  0  0  0  0  0  0  0  0  0  0  0
   17.0348   16.9591    5.1526 C   0  0  0  0  0  0  0  0  0  0  0  0
   15.9994   17.9381    5.0113 C   0  0  0  0  0  0  0  0  0  0  0  0
   16.5571   19.1932    5.1404 C   0  0  0  0  0  0  0  0  0  0  0  0
   18.4216   15.0605    5.3070 N   0  0  0  0  0  0  0  0  0  0  0  0
   19.4403   17.2243    5.5480 N   0  0  0  0  0  0  0  0  0  0  0  0
   17.8966   19.0245    5.3537 N   0  0  0  0  0  0  0  0  0  0  0  0
   18.5824   19.7531    5.4885 H   0  0  0  0  0  0  0  0  0  0  0  0
 16 17  1  0  0  0
  1 17  1  0  0  0
  1  2  1  0  0  0
  2  8  1  0  0  0
  3  8  1  0  0  0
  3  4  1  0  0  0
  4  5  1  0  0  0
  4  1  1  0  0  0
  5  6  1  0  0  0
  6  4  1  0  0  0
  7 10  1  0  0  0
 11 12  2  0  0  0
 13 14  2  0  0  0
 15 10  2  0  0  0
 19 24  2  0  0  0
 20 25  2  0  0  0
 21 22  1  0  0  0
 21 18  2  0  0  0
 23 26  1  0  0  0
 17 18  1  0  0  0
  8  7  1  0  0  0
 26 20  1  0  0  0
  7  9  2  0  0  0
 10 11  1  0  0  0
 12 13  1  0  0  0
 14 15  1  0  0  0
 18 24  1  0  0  0
 19 25  1  0  0  0
 20 21  1  0  0  0
 22 23  2  0  0  0
 26 27  1  0  0  0
M  END
> <minimizedAffinity>
-9.02287

$$$$
CHEMBL4290647


 27 31  0  0  0  0  0  0  0  0999 V2000
   14.7550   11.6074    4.4505 C   0  0  0  0  0  0  0  0  0  0  0  0
   14.9843   13.0417    4.9621 C   0  0  0  0  0  0  0  0  0  0  0  0
   13.4080   13.2043    3.1394 C   0  0  0  0  0  0  0  0  0  0  0  0
   13.6744   11.7414    3.3926 C   0  0  0  0  0  0  0  0  0  0  0  0
   12.5065   10.7660    3.3928 C   0  0  0  0  0  0  0  0  0  0  0  0
   13.4936   10.7312    2.2694 C   0  0  0  0  0  0  0  0  0  0  0  0
   14.2890   15.3083    4.0218 C   0  0  0  0  0  0  0  0  0  0  0  0
   14.2676   13.9297    4.0520 N   0  0  0  0  0  0  0  0  0  0  0  0
   13.5357   15.9777    3.3167 O   0  0  0  0  0  0  0  0  0  0  0  0
   15.2420   16.0283    4.8936 C   0  0  0  0  0  0  0  0  0  0  0  0
   14.8107   16.4514    6.1545 C   0  0  0  0  0  0  0  0  0  0  0  0
   15.6789   17.1680    6.9790 C   0  0  0  0  0  0  0  0  0  0  0  0
   16.9683   17.4721    6.5383 C   0  0  0  0  0  0  0  0  0  0  0  0
   17.3890   17.0731    5.2686 C   0  0  0  0  0  0  0  0  0  0  0  0
   16.5222   16.3606    4.4391 C   0  0  0  0  0  0  0  0  0  0  0  0
   16.9883   11.7225    3.3371 C   0  0  0  0  0  0  0  0  0  0  0  0
   15.9716   10.9132    3.9819 N   0  0  0  0  0  0  0  0  0  0  0  0
   16.1944    9.5641    4.2356 C   0  0  0  0  0  0  0  0  0  0  0  0
   15.5246    7.3378    3.8408 C   0  0  0  0  0  0  0  0  0  0  0  0
   17.2358    7.6269    5.1986 C   0  0  0  0  0  0  0  0  0  0  0  0
   17.2000    9.0134    5.0799 C   0  0  0  0  0  0  0  0  0  0  0  0
   18.2703    9.4859    5.9056 C   0  0  0  0  0  0  0  0  0  0  0  0
   18.8961    8.4003    6.4823 C   0  0  0  0  0  0  0  0  0  0  0  0
   15.3818    8.6563    3.6245 N   0  0  0  0  0  0  0  0  0  0  0  0
   16.4320    6.7324    4.6110 N   0  0  0  0  0  0  0  0  0  0  0  0
   18.2533    7.2773    6.0418 N   0  0  0  0  0  0  0  0  0  0  0  0
   18.4730    6.3222    6.2844 H   0  0  0  0  0  0  0  0  0  0  0  0
 16 17  1  0  0  0
  1 17  1  0  0  0
  1  2  1  0  0  0
  2  8  1  0  0  0
  3  8  1  0  0  0
  3  4  1  0  0  0
  4  5  1  0  0  0
  4  1  1  0  0  0
  5  6  1  0  0  0
  6  4  1  0  0  0
  7 10  1  0  0  0
 11 12  2  0  0  0
 13 14  2  0  0  0
 15 10  2  0  0  0
 19 24  2  0  0  0
 20 25  2  0  0  0
 21 22  1  0  0  0
 21 18  2  0  0  0
 23 26  1  0  0  0
 17 18  1  0  0  0
  8  7  1  0  0  0
 26 20  1  0  0  0
  7  9  2  0  0  0
 10 11  1  0  0  0
 12 13  1  0  0  0
 14 15  1  0  0  0
 18 24  1  0  0  0
 19 25  1  0  0  0
 20 21  1  0  0  0
 22 23  2  0  0  0
 26 27  1  0  0  0
M  END
> <minimizedAffinity>
-8.92009

$$$$
CHEMBL4292627


 29 33  0  0  0  0  0  0  0  0999 V2000
   16.1598   15.5977    5.5667 C   0  0  0  0  0  0  0  0  0  0  0  0
   15.7307   14.1322    5.3769 C   0  0  0  0  0  0  0  0  0  0  0  0
   18.1348   14.1246    5.5478 C   0  0  0  0  0  0  0  0  0  0  0  0
   17.6529   15.5293    5.8155 C   0  0  0  0  0  0  0  0  0  0  0  0
   18.2349   16.2865    7.0009 C   0  0  0  0  0  0  0  0  0  0  0  0
   18.5796   16.7169    5.6101 C   0  0  0  0  0  0  0  0  0  0  0  0
   17.0989   12.0208    4.8665 C   0  0  0  0  0  0  0  0  0  0  0  0
   16.9548   13.3559    5.1950 N   0  0  0  0  0  0  0  0  0  0  0  0
   18.1562   11.4144    5.0428 O   0  0  0  0  0  0  0  0  0  0  0  0
   15.9694   11.2599    4.2680 C   0  0  0  0  0  0  0  0  0  0  0  0
   16.0991    9.8713    4.1171 C   0  0  0  0  0  0  0  0  0  0  0  0
   15.0966    9.1298    3.4801 C   0  0  0  0  0  0  0  0  0  0  0  0
   13.9533    9.7717    2.9932 C   0  0  0  0  0  0  0  0  0  0  0  0
   13.8330   11.1588    3.1185 C   0  0  0  0  0  0  0  0  0  0  0  0
   14.8520   11.9006    3.7235 C   0  0  0  0  0  0  0  0  0  0  0  0
   12.9192    9.0212    2.3409 C   0  0  0  0  0  0  0  0  0  0  0  0
   12.0835    8.4225    1.8047 N   0  0  0  0  0  0  0  0  0  0  0  0
   15.9604   16.0373    3.1176 C   0  0  0  0  0  0  0  0  0  0  0  0
   15.7531   16.5075    4.4750 N   0  0  0  0  0  0  0  0  0  0  0  0
   15.2095   17.7674    4.7036 C   0  0  0  0  0  0  0  0  0  0  0  0
   15.2443   20.0686    4.1918 C   0  0  0  0  0  0  0  0  0  0  0  0
   13.7128   19.4060    5.6316 C   0  0  0  0  0  0  0  0  0  0  0  0
   14.1259   18.0777    5.5790 C   0  0  0  0  0  0  0  0  0  0  0  0
   13.2616   17.3859    6.4891 C   0  0  0  0  0  0  0  0  0  0  0  0
   12.3684   18.2888    7.0271 C   0  0  0  0  0  0  0  0  0  0  0  0
   15.7319   18.8261    4.0217 N   0  0  0  0  0  0  0  0  0  0  0  0
   14.2244   20.4486    4.9666 N   0  0  0  0  0  0  0  0  0  0  0  0
   12.6576   19.5138    6.4950 N   0  0  0  0  0  0  0  0  0  0  0  0
   12.1824   20.3828    6.6921 H   0  0  0  0  0  0  0  0  0  0  0  0
 18 19  1  0  0  0
  1 19  1  0  0  0
  1  2  1  0  0  0
  2  8  1  0  0  0
  3  8  1  0  0  0
  3  4  1  0  0  0
  4  5  1  0  0  0
  4  1  1  0  0  0
  5  6  1  0  0  0
  6  4  1  0  0  0
  7 10  1  0  0  0
 11 12  2  0  0  0
 13 14  2  0  0  0
 13 16  1  0  0  0
 15 10  2  0  0  0
 21 26  2  0  0  0
 22 27  2  0  0  0
 23 24  1  0  0  0
 23 20  2  0  0  0
 25 28  1  0  0  0
 19 20  1  0  0  0
  8  7  1  0  0  0
 28 22  1  0  0  0
  7  9  2  0  0  0
 10 11  1  0  0  0
 12 13  1  0  0  0
 14 15  1  0  0  0
 20 26  1  0  0  0
 21 27  1  0  0  0
 22 23  1  0  0  0
 24 25  2  0  0  0
 16 17  3  0  0  0
 28 29  1  0  0  0
M  END
> <minimizedAffinity>
-9.17556

$$$$
CHEMBL4292627


 29 33  0  0  0  0  0  0  0  0999 V2000
   15.9048   12.2192    3.7966 C   0  0  0  0  0  0  0  0  0  0  0  0
   15.9894   13.7410    4.0077 C   0  0  0  0  0  0  0  0  0  0  0  0
   17.6498   12.7566    5.4510 C   0  0  0  0  0  0  0  0  0  0  0  0
   17.0559   11.6568    4.6056 C   0  0  0  0  0  0  0  0  0  0  0  0
   17.9944   10.6546    3.9482 C   0  0  0  0  0  0  0  0  0  0  0  0
   17.1098   10.2100    5.0699 C   0  0  0  0  0  0  0  0  0  0  0  0
   17.2198   15.1385    5.7752 C   0  0  0  0  0  0  0  0  0  0  0  0
   16.9076   13.9604    5.1227 N   0  0  0  0  0  0  0  0  0  0  0  0
   18.2218   15.2484    6.4826 O   0  0  0  0  0  0  0  0  0  0  0  0
   16.3374   16.3301    5.6547 C   0  0  0  0  0  0  0  0  0  0  0  0
   15.2731   16.4727    6.5571 C   0  0  0  0  0  0  0  0  0  0  0  0
   14.3678   17.5327    6.4251 C   0  0  0  0  0  0  0  0  0  0  0  0
   14.5234   18.4618    5.3913 C   0  0  0  0  0  0  0  0  0  0  0  0
   15.5675   18.3076    4.4747 C   0  0  0  0  0  0  0  0  0  0  0  0
   16.4487   17.2281    4.5885 C   0  0  0  0  0  0  0  0  0  0  0  0
   13.6028   19.5527    5.2483 C   0  0  0  0  0  0  0  0  0  0  0  0
   12.8529   20.4284    5.1243 N   0  0  0  0  0  0  0  0  0  0  0  0
   13.9680   12.0031    5.3565 C   0  0  0  0  0  0  0  0  0  0  0  0
   14.5851   11.6254    4.0983 N   0  0  0  0  0  0  0  0  0  0  0  0
   13.9454   10.7316    3.2457 C   0  0  0  0  0  0  0  0  0  0  0  0
   13.8129    8.5302    2.4119 C   0  0  0  0  0  0  0  0  0  0  0  0
   12.3183    9.9601    1.6508 C   0  0  0  0  0  0  0  0  0  0  0  0
   12.8309   11.0151    2.4005 C   0  0  0  0  0  0  0  0  0  0  0  0
   12.0102   12.1406    2.0635 C   0  0  0  0  0  0  0  0  0  0  0  0
   11.0450   11.7341    1.1660 C   0  0  0  0  0  0  0  0  0  0  0  0
   14.3947    9.4449    3.2089 N   0  0  0  0  0  0  0  0  0  0  0  0
   12.7579    8.6968    1.6093 N   0  0  0  0  0  0  0  0  0  0  0  0
   11.2475   10.4042    0.9251 N   0  0  0  0  0  0  0  0  0  0  0  0
   10.7058    9.8150    0.3092 H   0  0  0  0  0  0  0  0  0  0  0  0
 18 19  1  0  0  0
  1 19  1  0  0  0
  1  2  1  0  0  0
  2  8  1  0  0  0
  3  8  1  0  0  0
  3  4  1  0  0  0
  4  5  1  0  0  0
  4  1  1  0  0  0
  5  6  1  0  0  0
  6  4  1  0  0  0
  7 10  1  0  0  0
 11 12  2  0  0  0
 13 14  2  0  0  0
 13 16  1  0  0  0
 15 10  2  0  0  0
 21 26  2  0  0  0
 22 27  2  0  0  0
 23 24  1  0  0  0
 23 20  2  0  0  0
 25 28  1  0  0  0
 19 20  1  0  0  0
  8  7  1  0  0  0
 28 22  1  0  0  0
  7  9  2  0  0  0
 10 11  1  0  0  0
 12 13  1  0  0  0
 14 15  1  0  0  0
 20 26  1  0  0  0
 21 27  1  0  0  0
 22 23  1  0  0  0
 24 25  2  0  0  0
 16 17  3  0  0  0
 28 29  1  0  0  0
M  END
> <minimizedAffinity>
-8.98818

$$$$
CHEMBL4292627


 29 33  0  0  0  0  0  0  0  0999 V2000
   16.7050   16.2123    4.2827 C   0  0  0  0  0  0  0  0  0  0  0  0
   15.7819   15.2577    3.5054 C   0  0  0  0  0  0  0  0  0  0  0  0
   14.4182   17.1244    4.1869 C   0  0  0  0  0  0  0  0  0  0  0  0
   15.8475   17.4301    4.5615 C   0  0  0  0  0  0  0  0  0  0  0  0
   16.4061   18.8097    4.2422 C   0  0  0  0  0  0  0  0  0  0  0  0
   16.1611   18.4254    5.6672 C   0  0  0  0  0  0  0  0  0  0  0  0
   13.2283   15.2109    3.2453 C   0  0  0  0  0  0  0  0  0  0  0  0
   14.4235   15.7752    3.6507 N   0  0  0  0  0  0  0  0  0  0  0  0
   12.1937   15.8716    3.1462 O   0  0  0  0  0  0  0  0  0  0  0  0
   13.1443   13.7615    2.9210 C   0  0  0  0  0  0  0  0  0  0  0  0
   12.0881   13.3132    2.1141 C   0  0  0  0  0  0  0  0  0  0  0  0
   11.9225   11.9469    1.8562 C   0  0  0  0  0  0  0  0  0  0  0  0
   12.8158   11.0184    2.4001 C   0  0  0  0  0  0  0  0  0  0  0  0
   13.8538   11.4596    3.2260 C   0  0  0  0  0  0  0  0  0  0  0  0
   13.9952   12.8212    3.5101 C   0  0  0  0  0  0  0  0  0  0  0  0
   12.6565    9.6165    2.1404 C   0  0  0  0  0  0  0  0  0  0  0  0
   12.5387    8.4831    1.9259 N   0  0  0  0  0  0  0  0  0  0  0  0
   16.7541   15.9303    6.7624 C   0  0  0  0  0  0  0  0  0  0  0  0
   17.3464   15.6183    5.4747 N   0  0  0  0  0  0  0  0  0  0  0  0
   18.4747   14.8078    5.4014 C   0  0  0  0  0  0  0  0  0  0  0  0
   20.8264   14.6643    5.4865 C   0  0  0  0  0  0  0  0  0  0  0  0
   19.7365   12.7691    5.2074 C   0  0  0  0  0  0  0  0  0  0  0  0
   18.4922   13.3931    5.2142 C   0  0  0  0  0  0  0  0  0  0  0  0
   17.5468   12.3336    5.0201 C   0  0  0  0  0  0  0  0  0  0  0  0
   18.2303   11.1392    4.9279 C   0  0  0  0  0  0  0  0  0  0  0  0
   19.6975   15.3946    5.5388 N   0  0  0  0  0  0  0  0  0  0  0  0
   20.9391   13.3412    5.3388 N   0  0  0  0  0  0  0  0  0  0  0  0
   19.5623   11.4225    5.0433 N   0  0  0  0  0  0  0  0  0  0  0  0
   20.3232   10.7593    5.0139 H   0  0  0  0  0  0  0  0  0  0  0  0
 18 19  1  0  0  0
  1 19  1  0  0  0
  1  2  1  0  0  0
  2  8  1  0  0  0
  3  8  1  0  0  0
  3  4  1  0  0  0
  4  5  1  0  0  0
  4  1  1  0  0  0
  5  6  1  0  0  0
  6  4  1  0  0  0
  7 10  1  0  0  0
 11 12  2  0  0  0
 13 14  2  0  0  0
 13 16  1  0  0  0
 15 10  2  0  0  0
 21 26  2  0  0  0
 22 27  2  0  0  0
 23 24  1  0  0  0
 23 20  2  0  0  0
 25 28  1  0  0  0
 19 20  1  0  0  0
  8  7  1  0  0  0
 28 22  1  0  0  0
  7  9  2  0  0  0
 10 11  1  0  0  0
 12 13  1  0  0  0
 14 15  1  0  0  0
 20 26  1  0  0  0
 21 27  1  0  0  0
 22 23  1  0  0  0
 24 25  2  0  0  0
 16 17  3  0  0  0
 28 29  1  0  0  0
M  END
> <minimizedAffinity>
-8.92869

$$$$
CHEMBL4292627


 29 33  0  0  0  0  0  0  0  0999 V2000
   16.4402   15.3034    5.7628 C   0  0  0  0  0  0  0  0  0  0  0  0
   15.9420   13.8691    5.5134 C   0  0  0  0  0  0  0  0  0  0  0  0
   18.3441   13.7426    5.6638 C   0  0  0  0  0  0  0  0  0  0  0  0
   17.9300   15.1551    5.9960 C   0  0  0  0  0  0  0  0  0  0  0  0
   18.5541   15.8321    7.2082 C   0  0  0  0  0  0  0  0  0  0  0  0
   18.9099   16.3063    5.8346 C   0  0  0  0  0  0  0  0  0  0  0  0
   17.2069   11.7208    4.9006 C   0  0  0  0  0  0  0  0  0  0  0  0
   17.1273   13.0455    5.2878 N   0  0  0  0  0  0  0  0  0  0  0  0
   18.2358   11.0590    5.0418 O   0  0  0  0  0  0  0  0  0  0  0  0
   16.0393   11.0399    4.2792 C   0  0  0  0  0  0  0  0  0  0  0  0
   16.1072    9.6564    4.0580 C   0  0  0  0  0  0  0  0  0  0  0  0
   15.0669    8.9913    3.3976 C   0  0  0  0  0  0  0  0  0  0  0  0
   13.9477    9.7052    2.9572 C   0  0  0  0  0  0  0  0  0  0  0  0
   13.8890   11.0881    3.1526 C   0  0  0  0  0  0  0  0  0  0  0  0
   14.9453   11.7544    3.7810 C   0  0  0  0  0  0  0  0  0  0  0  0
   12.8754    9.0333    2.2814 C   0  0  0  0  0  0  0  0  0  0  0  0
   12.0012    8.4989    1.7384 N   0  0  0  0  0  0  0  0  0  0  0  0
   16.3396   15.8977    3.3405 C   0  0  0  0  0  0  0  0  0  0  0  0
   16.0696   16.2779    4.7150 N   0  0  0  0  0  0  0  0  0  0  0  0
   15.5021   17.5156    5.0000 C   0  0  0  0  0  0  0  0  0  0  0  0
   13.5427   18.7450    5.4559 C   0  0  0  0  0  0  0  0  0  0  0  0
   15.4367   19.8719    5.4795 C   0  0  0  0  0  0  0  0  0  0  0  0
   16.1979   18.7516    5.1581 C   0  0  0  0  0  0  0  0  0  0  0  0
   17.5469   19.2301    5.0861 C   0  0  0  0  0  0  0  0  0  0  0  0
   17.5569   20.5778    5.3797 C   0  0  0  0  0  0  0  0  0  0  0  0
   14.1509   17.5794    5.1697 N   0  0  0  0  0  0  0  0  0  0  0  0
   14.1103   19.9397    5.6440 N   0  0  0  0  0  0  0  0  0  0  0  0
   16.2640   20.9524    5.6159 N   0  0  0  0  0  0  0  0  0  0  0  0
   15.9401   21.8785    5.8550 H   0  0  0  0  0  0  0  0  0  0  0  0
 18 19  1  0  0  0
  1 19  1  0  0  0
  1  2  1  0  0  0
  2  8  1  0  0  0
  3  8  1  0  0  0
  3  4  1  0  0  0
  4  5  1  0  0  0
  4  1  1  0  0  0
  5  6  1  0  0  0
  6  4  1  0  0  0
  7 10  1  0  0  0
 11 12  2  0  0  0
 13 14  2  0  0  0
 13 16  1  0  0  0
 15 10  2  0  0  0
 21 26  2  0  0  0
 22 27  2  0  0  0
 23 24  1  0  0  0
 23 20  2  0  0  0
 25 28  1  0  0  0
 19 20  1  0  0  0
  8  7  1  0  0  0
 28 22  1  0  0  0
  7  9  2  0  0  0
 10 11  1  0  0  0
 12 13  1  0  0  0
 14 15  1  0  0  0
 20 26  1  0  0  0
 21 27  1  0  0  0
 22 23  1  0  0  0
 24 25  2  0  0  0
 16 17  3  0  0  0
 28 29  1  0  0  0
M  END
> <minimizedAffinity>
-8.91721

$$$$
CHEMBL4292627


 29 33  0  0  0  0  0  0  0  0999 V2000
   16.1329   12.7519    3.8909 C   0  0  0  0  0  0  0  0  0  0  0  0
   16.8206   14.0953    4.1910 C   0  0  0  0  0  0  0  0  0  0  0  0
   18.0989   12.4017    5.3341 C   0  0  0  0  0  0  0  0  0  0  0  0
   17.0474   11.7097    4.5019 C   0  0  0  0  0  0  0  0  0  0  0  0
   17.4568   10.5087    3.6610 C   0  0  0  0  0  0  0  0  0  0  0  0
   16.5803   10.3070    4.8566 C   0  0  0  0  0  0  0  0  0  0  0  0
   18.6589   14.7171    5.8716 C   0  0  0  0  0  0  0  0  0  0  0  0
   17.8537   13.8252    5.1880 N   0  0  0  0  0  0  0  0  0  0  0  0
   19.6877   14.3607    6.4471 O   0  0  0  0  0  0  0  0  0  0  0  0
   18.3003   16.1588    5.9486 C   0  0  0  0  0  0  0  0  0  0  0  0
   17.3435   16.5644    6.8907 C   0  0  0  0  0  0  0  0  0  0  0  0
   16.9140   17.8963    6.9379 C   0  0  0  0  0  0  0  0  0  0  0  0
   17.4425   18.8345    6.0453 C   0  0  0  0  0  0  0  0  0  0  0  0
   18.3767   18.4280    5.0881 C   0  0  0  0  0  0  0  0  0  0  0  0
   18.7770   17.0901    5.0208 C   0  0  0  0  0  0  0  0  0  0  0  0
   17.0110   20.2020    6.0865 C   0  0  0  0  0  0  0  0  0  0  0  0
   16.6702   21.3100    6.1113 N   0  0  0  0  0  0  0  0  0  0  0  0
   14.4523   12.8924    5.7312 C   0  0  0  0  0  0  0  0  0  0  0  0
   14.7216   12.6695    4.3225 N   0  0  0  0  0  0  0  0  0  0  0  0
   13.6792   12.3782    3.4485 C   0  0  0  0  0  0  0  0  0  0  0  0
   11.8601   13.1882    2.1863 C   0  0  0  0  0  0  0  0  0  0  0  0
   12.2918   11.0337    2.0155 C   0  0  0  0  0  0  0  0  0  0  0  0
   13.3601   11.0974    2.9057 C   0  0  0  0  0  0  0  0  0  0  0  0
   13.8431    9.7514    2.9999 C   0  0  0  0  0  0  0  0  0  0  0  0
   13.0870    8.9488    2.1713 C   0  0  0  0  0  0  0  0  0  0  0  0
   12.8794   13.4031    3.0379 N   0  0  0  0  0  0  0  0  0  0  0  0
   11.5023   12.0361    1.6121 N   0  0  0  0  0  0  0  0  0  0  0  0
   12.1468    9.7452    1.5803 N   0  0  0  0  0  0  0  0  0  0  0  0
   11.4399    9.4536    0.9206 H   0  0  0  0  0  0  0  0  0  0  0  0
 18 19  1  0  0  0
  1 19  1  0  0  0
  1  2  1  0  0  0
  2  8  1  0  0  0
  3  8  1  0  0  0
  3  4  1  0  0  0
  4  5  1  0  0  0
  4  1  1  0  0  0
  5  6  1  0  0  0
  6  4  1  0  0  0
  7 10  1  0  0  0
 11 12  2  0  0  0
 13 14  2  0  0  0
 13 16  1  0  0  0
 15 10  2  0  0  0
 21 26  2  0  0  0
 22 27  2  0  0  0
 23 24  1  0  0  0
 23 20  2  0  0  0
 25 28  1  0  0  0
 19 20  1  0  0  0
  8  7  1  0  0  0
 28 22  1  0  0  0
  7  9  2  0  0  0
 10 11  1  0  0  0
 12 13  1  0  0  0
 14 15  1  0  0  0
 20 26  1  0  0  0
 21 27  1  0  0  0
 22 23  1  0  0  0
 24 25  2  0  0  0
 16 17  3  0  0  0
 28 29  1  0  0  0
M  END
> <minimizedAffinity>
-8.85145

$$$$
CHEMBL4292627


 29 33  0  0  0  0  0  0  0  0999 V2000
   15.7804   13.3147    3.5242 C   0  0  0  0  0  0  0  0  0  0  0  0
   16.2565   11.8557    3.6355 C   0  0  0  0  0  0  0  0  0  0  0  0
   13.9485   11.7717    2.9462 C   0  0  0  0  0  0  0  0  0  0  0  0
   14.3813   13.2172    2.9506 C   0  0  0  0  0  0  0  0  0  0  0  0
   14.0134   14.0924    1.7606 C   0  0  0  0  0  0  0  0  0  0  0  0
   13.3551   14.3311    3.0827 C   0  0  0  0  0  0  0  0  0  0  0  0
   14.9552    9.6431    3.5937 C   0  0  0  0  0  0  0  0  0  0  0  0
   15.0761   11.0135    3.4578 N   0  0  0  0  0  0  0  0  0  0  0  0
   14.0017    9.0210    3.1241 O   0  0  0  0  0  0  0  0  0  0  0  0
   15.9812    8.8599    4.3333 C   0  0  0  0  0  0  0  0  0  0  0  0
   16.0167    7.4681    4.1627 C   0  0  0  0  0  0  0  0  0  0  0  0
   16.9086    6.6846    4.9052 C   0  0  0  0  0  0  0  0  0  0  0  0
   17.7759    7.2886    5.8212 C   0  0  0  0  0  0  0  0  0  0  0  0
   17.7248    8.6723    6.0126 C   0  0  0  0  0  0  0  0  0  0  0  0
   16.8086    9.4475    5.2953 C   0  0  0  0  0  0  0  0  0  0  0  0
   18.6951    6.4953    6.5853 C   0  0  0  0  0  0  0  0  0  0  0  0
   19.4374    5.8456    7.1947 N   0  0  0  0  0  0  0  0  0  0  0  0
   15.1310   13.6140    5.9158 C   0  0  0  0  0  0  0  0  0  0  0  0
   15.8861   14.0967    4.7741 N   0  0  0  0  0  0  0  0  0  0  0  0
   16.6512   15.2537    4.8799 C   0  0  0  0  0  0  0  0  0  0  0  0
   18.7746   16.2026    5.2667 C   0  0  0  0  0  0  0  0  0  0  0  0
   17.1378   17.6086    4.8177 C   0  0  0  0  0  0  0  0  0  0  0  0
   16.1923   16.5934    4.7027 C   0  0  0  0  0  0  0  0  0  0  0  0
   14.9603   17.2670    4.4156 C   0  0  0  0  0  0  0  0  0  0  0  0
   15.2007   18.6234    4.3470 C   0  0  0  0  0  0  0  0  0  0  0  0
   17.9789   15.1227    5.1603 N   0  0  0  0  0  0  0  0  0  0  0  0
   18.4410   17.4850    5.0957 N   0  0  0  0  0  0  0  0  0  0  0  0
   16.5311   18.8140    4.5949 N   0  0  0  0  0  0  0  0  0  0  0  0
   17.0182   19.6983    4.6178 H   0  0  0  0  0  0  0  0  0  0  0  0
 18 19  1  0  0  0
  1 19  1  0  0  0
  1  2  1  0  0  0
  2  8  1  0  0  0
  3  8  1  0  0  0
  3  4  1  0  0  0
  4  5  1  0  0  0
  4  1  1  0  0  0
  5  6  1  0  0  0
  6  4  1  0  0  0
  7 10  1  0  0  0
 11 12  2  0  0  0
 13 14  2  0  0  0
 13 16  1  0  0  0
 15 10  2  0  0  0
 21 26  2  0  0  0
 22 27  2  0  0  0
 23 24  1  0  0  0
 23 20  2  0  0  0
 25 28  1  0  0  0
 19 20  1  0  0  0
  8  7  1  0  0  0
 28 22  1  0  0  0
  7  9  2  0  0  0
 10 11  1  0  0  0
 12 13  1  0  0  0
 14 15  1  0  0  0
 20 26  1  0  0  0
 21 27  1  0  0  0
 22 23  1  0  0  0
 24 25  2  0  0  0
 16 17  3  0  0  0
 28 29  1  0  0  0
M  END
> <minimizedAffinity>
-8.84692

$$$$
CHEMBL4292627


 29 33  0  0  0  0  0  0  0  0999 V2000
   18.6787   14.6740    4.5064 C   0  0  0  0  0  0  0  0  0  0  0  0
   17.4000   14.0728    3.8973 C   0  0  0  0  0  0  0  0  0  0  0  0
   16.6859   15.7915    5.4287 C   0  0  0  0  0  0  0  0  0  0  0  0
   18.1917   15.8392    5.3437 C   0  0  0  0  0  0  0  0  0  0  0  0
   18.8706   17.1923    5.1838 C   0  0  0  0  0  0  0  0  0  0  0  0
   19.0110   16.4447    6.4722 C   0  0  0  0  0  0  0  0  0  0  0  0
   14.9292   14.3478    4.5379 C   0  0  0  0  0  0  0  0  0  0  0  0
   16.2741   14.6560    4.6231 N   0  0  0  0  0  0  0  0  0  0  0  0
   14.0565   15.1058    4.9629 O   0  0  0  0  0  0  0  0  0  0  0  0
   14.4809   13.0652    3.9322 C   0  0  0  0  0  0  0  0  0  0  0  0
   13.4990   13.1013    2.9311 C   0  0  0  0  0  0  0  0  0  0  0  0
   12.9869   11.9129    2.3961 C   0  0  0  0  0  0  0  0  0  0  0  0
   13.4571   10.6784    2.8555 C   0  0  0  0  0  0  0  0  0  0  0  0
   14.4164   10.6387    3.8714 C   0  0  0  0  0  0  0  0  0  0  0  0
   14.8999   11.8266    4.4281 C   0  0  0  0  0  0  0  0  0  0  0  0
   12.9407    9.4550    2.3126 C   0  0  0  0  0  0  0  0  0  0  0  0
   12.5255    8.4703    1.8628 N   0  0  0  0  0  0  0  0  0  0  0  0
   18.9336   12.4342    5.5783 C   0  0  0  0  0  0  0  0  0  0  0  0
   19.5348   13.7072    5.2258 N   0  0  0  0  0  0  0  0  0  0  0  0
   20.8528   13.9798    5.5773 C   0  0  0  0  0  0  0  0  0  0  0  0
   22.9973   14.6591    4.8712 C   0  0  0  0  0  0  0  0  0  0  0  0
   22.7526   14.2630    7.0255 C   0  0  0  0  0  0  0  0  0  0  0  0
   21.4126   13.9116    6.8884 C   0  0  0  0  0  0  0  0  0  0  0  0
   20.9833   13.5696    8.2123 C   0  0  0  0  0  0  0  0  0  0  0  0
   22.0405   13.7424    9.0810 C   0  0  0  0  0  0  0  0  0  0  0  0
   21.7121   14.3723    4.5944 N   0  0  0  0  0  0  0  0  0  0  0  0
   23.6003   14.6459    6.0634 N   0  0  0  0  0  0  0  0  0  0  0  0
   23.1099   14.1641    8.3420 N   0  0  0  0  0  0  0  0  0  0  0  0
   24.0345   14.3762    8.6883 H   0  0  0  0  0  0  0  0  0  0  0  0
 18 19  1  0  0  0
  1 19  1  0  0  0
  1  2  1  0  0  0
  2  8  1  0  0  0
  3  8  1  0  0  0
  3  4  1  0  0  0
  4  5  1  0  0  0
  4  1  1  0  0  0
  5  6  1  0  0  0
  6  4  1  0  0  0
  7 10  1  0  0  0
 11 12  2  0  0  0
 13 14  2  0  0  0
 13 16  1  0  0  0
 15 10  2  0  0  0
 21 26  2  0  0  0
 22 27  2  0  0  0
 23 24  1  0  0  0
 23 20  2  0  0  0
 25 28  1  0  0  0
 19 20  1  0  0  0
  8  7  1  0  0  0
 28 22  1  0  0  0
  7  9  2  0  0  0
 10 11  1  0  0  0
 12 13  1  0  0  0
 14 15  1  0  0  0
 20 26  1  0  0  0
 21 27  1  0  0  0
 22 23  1  0  0  0
 24 25  2  0  0  0
 16 17  3  0  0  0
 28 29  1  0  0  0
M  END
> <minimizedAffinity>
-8.83315

$$$$
CHEMBL4292627


 29 33  0  0  0  0  0  0  0  0999 V2000
   14.7234   11.6414    4.5129 C   0  0  0  0  0  0  0  0  0  0  0  0
   14.9893   13.0478    5.0779 C   0  0  0  0  0  0  0  0  0  0  0  0
   13.4827   13.3311    3.2180 C   0  0  0  0  0  0  0  0  0  0  0  0
   13.6653   11.8511    3.4488 C   0  0  0  0  0  0  0  0  0  0  0  0
   12.4339   10.9560    3.4518 C   0  0  0  0  0  0  0  0  0  0  0  0
   13.4146   10.8568    2.3262 C   0  0  0  0  0  0  0  0  0  0  0  0
   14.4375   15.3767    4.1493 C   0  0  0  0  0  0  0  0  0  0  0  0
   14.3720   13.9958    4.1535 N   0  0  0  0  0  0  0  0  0  0  0  0
   13.6373   16.0673    3.5172 O   0  0  0  0  0  0  0  0  0  0  0  0
   15.4996   16.0889    4.9093 C   0  0  0  0  0  0  0  0  0  0  0  0
   16.7354   16.3159    4.2856 C   0  0  0  0  0  0  0  0  0  0  0  0
   17.7902   16.9047    4.9937 C   0  0  0  0  0  0  0  0  0  0  0  0
   17.6151   17.2756    6.3309 C   0  0  0  0  0  0  0  0  0  0  0  0
   16.3934   17.0267    6.9629 C   0  0  0  0  0  0  0  0  0  0  0  0
   15.3538   16.4065    6.2634 C   0  0  0  0  0  0  0  0  0  0  0  0
   18.6885   17.8814    7.0648 C   0  0  0  0  0  0  0  0  0  0  0  0
   19.5541   18.3636    7.6671 N   0  0  0  0  0  0  0  0  0  0  0  0
   16.9158   11.6916    3.3206 C   0  0  0  0  0  0  0  0  0  0  0  0
   15.9300   10.9204    4.0554 N   0  0  0  0  0  0  0  0  0  0  0  0
   16.1340    9.5641    4.2877 C   0  0  0  0  0  0  0  0  0  0  0  0
   15.4647    7.3488    3.8368 C   0  0  0  0  0  0  0  0  0  0  0  0
   17.1953    7.5979    5.1787 C   0  0  0  0  0  0  0  0  0  0  0  0
   17.1449    8.9875    5.1138 C   0  0  0  0  0  0  0  0  0  0  0  0
   18.2109    9.4356    5.9603 C   0  0  0  0  0  0  0  0  0  0  0  0
   18.8632    8.3344    6.4745 C   0  0  0  0  0  0  0  0  0  0  0  0
   15.3133    8.6742    3.6606 N   0  0  0  0  0  0  0  0  0  0  0  0
   16.3902    6.7208    4.5676 N   0  0  0  0  0  0  0  0  0  0  0  0
   18.2316    7.2239    5.9891 N   0  0  0  0  0  0  0  0  0  0  0  0
   18.4710    6.2623    6.1835 H   0  0  0  0  0  0  0  0  0  0  0  0
 18 19  1  0  0  0
  1 19  1  0  0  0
  1  2  1  0  0  0
  2  8  1  0  0  0
  3  8  1  0  0  0
  3  4  1  0  0  0
  4  5  1  0  0  0
  4  1  1  0  0  0
  5  6  1  0  0  0
  6  4  1  0  0  0
  7 10  1  0  0  0
 11 12  2  0  0  0
 13 14  2  0  0  0
 13 16  1  0  0  0
 15 10  2  0  0  0
 21 26  2  0  0  0
 22 27  2  0  0  0
 23 24  1  0  0  0
 23 20  2  0  0  0
 25 28  1  0  0  0
 19 20  1  0  0  0
  8  7  1  0  0  0
 28 22  1  0  0  0
  7  9  2  0  0  0
 10 11  1  0  0  0
 12 13  1  0  0  0
 14 15  1  0  0  0
 20 26  1  0  0  0
 21 27  1  0  0  0
 22 23  1  0  0  0
 24 25  2  0  0  0
 16 17  3  0  0  0
 28 29  1  0  0  0
M  END
> <minimizedAffinity>
-8.70097

$$$$
CHEMBL4292627


 29 33  0  0  0  0  0  0  0  0999 V2000
   14.8735   13.4404    4.2293 C   0  0  0  0  0  0  0  0  0  0  0  0
   15.3662   14.6917    4.9772 C   0  0  0  0  0  0  0  0  0  0  0  0
   13.9624   15.4760    3.1818 C   0  0  0  0  0  0  0  0  0  0  0  0
   13.8852   13.9693    3.2098 C   0  0  0  0  0  0  0  0  0  0  0  0
   12.5190   13.3068    3.0997 C   0  0  0  0  0  0  0  0  0  0  0  0
   13.4874   13.1923    1.9649 C   0  0  0  0  0  0  0  0  0  0  0  0
   15.2368   17.1838    4.3746 C   0  0  0  0  0  0  0  0  0  0  0  0
   14.9361   15.8468    4.1930 N   0  0  0  0  0  0  0  0  0  0  0  0
   14.5775   18.0800    3.8464 O   0  0  0  0  0  0  0  0  0  0  0  0
   16.3919   17.5947    5.2172 C   0  0  0  0  0  0  0  0  0  0  0  0
   16.1705   18.4974    6.2677 C   0  0  0  0  0  0  0  0  0  0  0  0
   17.2431   18.9766    7.0297 C   0  0  0  0  0  0  0  0  0  0  0  0
   18.5460   18.5521    6.7493 C   0  0  0  0  0  0  0  0  0  0  0  0
   18.7729   17.6730    5.6864 C   0  0  0  0  0  0  0  0  0  0  0  0
   17.7038   17.2241    4.9053 C   0  0  0  0  0  0  0  0  0  0  0  0
   19.6518   19.0352    7.5252 C   0  0  0  0  0  0  0  0  0  0  0  0
   20.5524   19.4256    8.1424 N   0  0  0  0  0  0  0  0  0  0  0  0
   16.8590   13.2181    2.7329 C   0  0  0  0  0  0  0  0  0  0  0  0
   15.9467   12.5908    3.6713 N   0  0  0  0  0  0  0  0  0  0  0  0
   16.0932   11.2463    3.9971 C   0  0  0  0  0  0  0  0  0  0  0  0
   17.2720    9.6178    5.2287 C   0  0  0  0  0  0  0  0  0  0  0  0
   15.5851    8.8951    4.0083 C   0  0  0  0  0  0  0  0  0  0  0  0
   15.2879   10.1665    3.5255 C   0  0  0  0  0  0  0  0  0  0  0  0
   14.1766    9.9751    2.6410 C   0  0  0  0  0  0  0  0  0  0  0  0
   13.8366    8.6384    2.6371 C   0  0  0  0  0  0  0  0  0  0  0  0
   17.0843   10.9001    4.8668 N   0  0  0  0  0  0  0  0  0  0  0  0
   16.5586    8.5503    4.8594 N   0  0  0  0  0  0  0  0  0  0  0  0
   14.7045    7.9952    3.4741 N   0  0  0  0  0  0  0  0  0  0  0  0
   14.7177    7.0075    3.6837 H   0  0  0  0  0  0  0  0  0  0  0  0
 18 19  1  0  0  0
  1 19  1  0  0  0
  1  2  1  0  0  0
  2  8  1  0  0  0
  3  8  1  0  0  0
  3  4  1  0  0  0
  4  5  1  0  0  0
  4  1  1  0  0  0
  5  6  1  0  0  0
  6  4  1  0  0  0
  7 10  1  0  0  0
 11 12  2  0  0  0
 13 14  2  0  0  0
 13 16  1  0  0  0
 15 10  2  0  0  0
 21 26  2  0  0  0
 22 27  2  0  0  0
 23 24  1  0  0  0
 23 20  2  0  0  0
 25 28  1  0  0  0
 19 20  1  0  0  0
  8  7  1  0  0  0
 28 22  1  0  0  0
  7  9  2  0  0  0
 10 11  1  0  0  0
 12 13  1  0  0  0
 14 15  1  0  0  0
 20 26  1  0  0  0
 21 27  1  0  0  0
 22 23  1  0  0  0
 24 25  2  0  0  0
 16 17  3  0  0  0
 28 29  1  0  0  0
M  END
> <minimizedAffinity>
-8.65497

$$$$
CHEMBL1630793


 34 38  0  0  0  0  0  0  0  0999 V2000
   15.9219   17.4717    4.3099 N   0  0  0  0  0  0  0  0  0  0  0  0
   18.1474   17.5498    5.4732 C   0  0  0  0  0  0  0  0  0  0  0  0
   17.3693   17.3082    4.1584 C   0  0  0  0  0  0  0  0  0  0  0  0
   15.5261   18.7908    4.7898 C   0  0  0  0  0  0  0  0  0  0  0  0
   16.1513   19.0799    6.1506 C   0  0  0  0  0  0  0  0  0  0  0  0
   17.6812   18.8531    6.1912 C   0  0  0  0  0  0  0  0  0  0  0  0
   18.3851   20.0854    5.5868 C   0  0  0  0  0  0  0  0  0  0  0  0
   14.9358   16.5297    4.0512 C   0  0  0  0  0  0  0  0  0  0  0  0
   13.7383   16.8189    4.1621 O   0  0  0  0  0  0  0  0  0  0  0  0
   14.1510   13.1020    3.6697 N   0  0  0  0  0  0  0  0  0  0  0  0
   15.3124   15.1356    3.5884 C   0  0  0  0  0  0  0  0  0  0  0  0
   14.7288   14.8373    2.1978 C   0  0  0  0  0  0  0  0  0  0  0  0
   14.1247   13.4470    2.2783 C   0  0  0  0  0  0  0  0  0  0  0  0
   14.7126   14.0734    4.4712 C   0  0  0  0  0  0  0  0  0  0  0  0
   14.7650   14.0386    5.6945 O   0  0  0  0  0  0  0  0  0  0  0  0
   13.6585   11.8386    4.1785 C   0  0  0  0  0  0  0  0  0  0  0  0
   13.1595   10.9411    3.0687 C   0  0  0  0  0  0  0  0  0  0  0  0
   13.8475    9.7582    2.7562 C   0  0  0  0  0  0  0  0  0  0  0  0
   13.4042    8.9253    1.7277 C   0  0  0  0  0  0  0  0  0  0  0  0
   12.2804    9.2760    0.9840 C   0  0  0  0  0  0  0  0  0  0  0  0
   11.5975   10.4567    1.2718 C   0  0  0  0  0  0  0  0  0  0  0  0
   12.0327   11.2850    2.3095 C   0  0  0  0  0  0  0  0  0  0  0  0
   18.1989   16.3498    6.3314 N   0  0  0  0  0  0  0  0  0  0  0  0
   17.0642   15.9165    7.1416 C   0  0  0  0  0  0  0  0  0  0  0  0
   20.4698   15.7167    6.5130 N   0  0  0  0  0  0  0  0  0  0  0  0
   21.4193   13.5685    6.0099 N   0  0  0  0  0  0  0  0  0  0  0  0
   19.8424   12.0008    5.1786 N   0  0  0  0  0  0  0  0  0  0  0  0
   21.4780   14.8341    6.4309 C   0  0  0  0  0  0  0  0  0  0  0  0
   20.1709   13.2359    5.6620 C   0  0  0  0  0  0  0  0  0  0  0  0
   18.5057   11.9524    4.9042 C   0  0  0  0  0  0  0  0  0  0  0  0
   17.9768   13.1867    5.2191 C   0  0  0  0  0  0  0  0  0  0  0  0
   19.0261   14.0288    5.7118 C   0  0  0  0  0  0  0  0  0  0  0  0
   19.1892   15.3644    6.1817 C   0  0  0  0  0  0  0  0  0  0  0  0
   20.5144   11.2596    5.0439 H   0  0  0  0  0  0  0  0  0  0  0  0
 27 30  1  0  0  0
  1  8  1  0  0  0
 10 14  1  0  0  0
 28 26  2  0  0  0
 29 27  1  0  0  0
 31 32  1  0  0  0
 32 29  2  0  0  0
 33 23  1  0  0  0
 33 25  2  0  0  0
  2 23  1  0  0  0
  2  3  1  0  0  0
  3  1  1  0  0  0
  4  1  1  0  0  0
  4  5  1  0  0  0
  5  6  1  0  0  0
  6  7  1  0  0  0
  6  2  1  0  0  0
 11  8  1  0  0  0
 11 12  1  0  0  0
 11 14  1  0  0  0
 12 13  1  0  0  0
 13 10  1  0  0  0
 16 10  1  0  0  0
 16 17  1  0  0  0
 18 19  2  0  0  0
 20 21  2  0  0  0
 22 17  2  0  0  0
 24 23  1  0  0  0
 28 25  1  0  0  0
 29 26  1  0  0  0
 30 31  2  0  0  0
 32 33  1  0  0  0
  8  9  2  0  0  0
 14 15  2  0  0  0
 17 18  1  0  0  0
 19 20  1  0  0  0
 21 22  1  0  0  0
 27 34  1  0  0  0
M  END
> <minimizedAffinity>
-9.69194

$$$$
CHEMBL1630793


 34 38  0  0  0  0  0  0  0  0999 V2000
   15.9380   17.8175    4.2607 N   0  0  0  0  0  0  0  0  0  0  0  0
   17.8682   18.4165    5.7533 C   0  0  0  0  0  0  0  0  0  0  0  0
   17.3961   17.8559    4.3912 C   0  0  0  0  0  0  0  0  0  0  0  0
   15.2990   19.1192    4.4177 C   0  0  0  0  0  0  0  0  0  0  0  0
   15.6076   19.7099    5.7895 C   0  0  0  0  0  0  0  0  0  0  0  0
   17.1163   19.7292    6.1315 C   0  0  0  0  0  0  0  0  0  0  0  0
   17.7693   20.9448    5.4422 C   0  0  0  0  0  0  0  0  0  0  0  0
   15.1430   16.7069    4.0133 C   0  0  0  0  0  0  0  0  0  0  0  0
   13.9207   16.8231    3.8634 O   0  0  0  0  0  0  0  0  0  0  0  0
   14.8408   13.1829    3.9896 N   0  0  0  0  0  0  0  0  0  0  0  0
   15.7690   15.3319    3.8834 C   0  0  0  0  0  0  0  0  0  0  0  0
   15.6113   14.7843    2.4555 C   0  0  0  0  0  0  0  0  0  0  0  0
   15.1521   13.3446    2.5994 C   0  0  0  0  0  0  0  0  0  0  0  0
   15.0663   14.3152    4.7436 C   0  0  0  0  0  0  0  0  0  0  0  0
   14.7934   14.4409    5.9311 O   0  0  0  0  0  0  0  0  0  0  0  0
   14.3612   11.9368    4.5507 C   0  0  0  0  0  0  0  0  0  0  0  0
   13.7621   11.0373    3.4933 C   0  0  0  0  0  0  0  0  0  0  0  0
   12.6090   11.4367    2.7996 C   0  0  0  0  0  0  0  0  0  0  0  0
   12.0392   10.6123    1.8282 C   0  0  0  0  0  0  0  0  0  0  0  0
   12.6022    9.3686    1.5538 C   0  0  0  0  0  0  0  0  0  0  0  0
   13.7373    8.9515    2.2474 C   0  0  0  0  0  0  0  0  0  0  0  0
   14.3162    9.7813    3.2111 C   0  0  0  0  0  0  0  0  0  0  0  0
   17.8972   17.3878    6.8117 N   0  0  0  0  0  0  0  0  0  0  0  0
   16.6822   16.7823    7.3493 C   0  0  0  0  0  0  0  0  0  0  0  0
   19.7998   17.1443    8.1943 N   0  0  0  0  0  0  0  0  0  0  0  0
   21.4828   15.4363    8.0547 N   0  0  0  0  0  0  0  0  0  0  0  0
   21.1535   13.9188    6.2591 N   0  0  0  0  0  0  0  0  0  0  0  0
   20.9162   16.5169    8.5967 C   0  0  0  0  0  0  0  0  0  0  0  0
   20.7778   15.0008    7.0041 C   0  0  0  0  0  0  0  0  0  0  0  0
   20.2521   13.7139    5.2542 C   0  0  0  0  0  0  0  0  0  0  0  0
   19.2848   14.6910    5.3648 C   0  0  0  0  0  0  0  0  0  0  0  0
   19.5978   15.5288    6.4842 C   0  0  0  0  0  0  0  0  0  0  0  0
   19.0667   16.6798    7.1356 C   0  0  0  0  0  0  0  0  0  0  0  0
   21.9871   13.3796    6.4426 H   0  0  0  0  0  0  0  0  0  0  0  0
 27 30  1  0  0  0
  1  8  1  0  0  0
 10 14  1  0  0  0
 28 26  2  0  0  0
 29 27  1  0  0  0
 31 32  1  0  0  0
 32 29  2  0  0  0
 33 23  1  0  0  0
 33 25  2  0  0  0
  2 23  1  0  0  0
  2  3  1  0  0  0
  3  1  1  0  0  0
  4  1  1  0  0  0
  4  5  1  0  0  0
  5  6  1  0  0  0
  6  7  1  0  0  0
  6  2  1  0  0  0
 11  8  1  0  0  0
 11 12  1  0  0  0
 11 14  1  0  0  0
 12 13  1  0  0  0
 13 10  1  0  0  0
 16 10  1  0  0  0
 16 17  1  0  0  0
 18 19  2  0  0  0
 20 21  2  0  0  0
 22 17  2  0  0  0
 24 23  1  0  0  0
 28 25  1  0  0  0
 29 26  1  0  0  0
 30 31  2  0  0  0
 32 33  1  0  0  0
  8  9  2  0  0  0
 14 15  2  0  0  0
 17 18  1  0  0  0
 19 20  1  0  0  0
 21 22  1  0  0  0
 27 34  1  0  0  0
M  END
> <minimizedAffinity>
-9.57084

$$$$
CHEMBL1630793


 34 38  0  0  0  0  0  0  0  0999 V2000
   16.6326   18.0249    4.6026 N   0  0  0  0  0  0  0  0  0  0  0  0
   18.7411   17.8095    5.9516 C   0  0  0  0  0  0  0  0  0  0  0  0
   18.0562   17.6828    4.5706 C   0  0  0  0  0  0  0  0  0  0  0  0
   16.3632   19.3776    5.0769 C   0  0  0  0  0  0  0  0  0  0  0  0
   16.8990   19.5699    6.4918 C   0  0  0  0  0  0  0  0  0  0  0  0
   18.3796   19.1525    6.6566 C   0  0  0  0  0  0  0  0  0  0  0  0
   19.2806   20.2938    6.1419 C   0  0  0  0  0  0  0  0  0  0  0  0
   15.5635   17.2172    4.2403 C   0  0  0  0  0  0  0  0  0  0  0  0
   14.4060   17.6530    4.2559 O   0  0  0  0  0  0  0  0  0  0  0  0
   14.3324   14.0021    3.4288 N   0  0  0  0  0  0  0  0  0  0  0  0
   15.8031   15.7924    3.7798 C   0  0  0  0  0  0  0  0  0  0  0  0
   15.5437   15.6469    2.2715 C   0  0  0  0  0  0  0  0  0  0  0  0
   14.7132   14.3877    2.1013 C   0  0  0  0  0  0  0  0  0  0  0  0
   14.8315   14.8308    4.4114 C   0  0  0  0  0  0  0  0  0  0  0  0
   14.5700   14.7505    5.6054 O   0  0  0  0  0  0  0  0  0  0  0  0
   13.5226   12.8345    3.7094 C   0  0  0  0  0  0  0  0  0  0  0  0
   14.3535   11.5723    3.7596 C   0  0  0  0  0  0  0  0  0  0  0  0
   13.9593   10.4399    3.0298 C   0  0  0  0  0  0  0  0  0  0  0  0
   14.7110    9.2648    3.0747 C   0  0  0  0  0  0  0  0  0  0  0  0
   15.8541    9.1999    3.8673 C   0  0  0  0  0  0  0  0  0  0  0  0
   16.2478   10.3113    4.6110 C   0  0  0  0  0  0  0  0  0  0  0  0
   15.5033   11.4925    4.5570 C   0  0  0  0  0  0  0  0  0  0  0  0
   18.5688   16.6026    6.7840 N   0  0  0  0  0  0  0  0  0  0  0  0
   17.2923   16.2507    7.3991 C   0  0  0  0  0  0  0  0  0  0  0  0
   20.6408   15.7166    7.4999 N   0  0  0  0  0  0  0  0  0  0  0  0
   21.5582   13.5626    6.9632 N   0  0  0  0  0  0  0  0  0  0  0  0
   20.1996   12.2882    5.4916 N   0  0  0  0  0  0  0  0  0  0  0  0
   21.5705   14.7508    7.5718 C   0  0  0  0  0  0  0  0  0  0  0  0
   20.4489   13.4101    6.2308 C   0  0  0  0  0  0  0  0  0  0  0  0
   19.0026   12.4158    4.8472 C   0  0  0  0  0  0  0  0  0  0  0  0
   18.4838   13.6484    5.1847 C   0  0  0  0  0  0  0  0  0  0  0  0
   19.3928   14.3058    6.0760 C   0  0  0  0  0  0  0  0  0  0  0  0
   19.4947   15.5459    6.7710 C   0  0  0  0  0  0  0  0  0  0  0  0
   20.8331   11.5038    5.4404 H   0  0  0  0  0  0  0  0  0  0  0  0
 27 30  1  0  0  0
  1  8  1  0  0  0
 10 14  1  0  0  0
 28 26  2  0  0  0
 29 27  1  0  0  0
 31 32  1  0  0  0
 32 29  2  0  0  0
 33 23  1  0  0  0
 33 25  2  0  0  0
  2 23  1  0  0  0
  2  3  1  0  0  0
  3  1  1  0  0  0
  4  1  1  0  0  0
  4  5  1  0  0  0
  5  6  1  0  0  0
  6  7  1  0  0  0
  6  2  1  0  0  0
 11  8  1  0  0  0
 11 12  1  0  0  0
 11 14  1  0  0  0
 12 13  1  0  0  0
 13 10  1  0  0  0
 16 10  1  0  0  0
 16 17  1  0  0  0
 18 19  2  0  0  0
 20 21  2  0  0  0
 22 17  2  0  0  0
 24 23  1  0  0  0
 28 25  1  0  0  0
 29 26  1  0  0  0
 30 31  2  0  0  0
 32 33  1  0  0  0
  8  9  2  0  0  0
 14 15  2  0  0  0
 17 18  1  0  0  0
 19 20  1  0  0  0
 21 22  1  0  0  0
 27 34  1  0  0  0
M  END
> <minimizedAffinity>
-9.55658

$$$$
CHEMBL1630793


 34 38  0  0  0  0  0  0  0  0999 V2000
   18.4127   13.8583    6.4105 N   0  0  0  0  0  0  0  0  0  0  0  0
   17.9865   16.2524    7.0417 C   0  0  0  0  0  0  0  0  0  0  0  0
   17.4651   14.7965    7.0159 C   0  0  0  0  0  0  0  0  0  0  0  0
   19.7107   13.8225    7.0748 C   0  0  0  0  0  0  0  0  0  0  0  0
   20.3683   15.1983    7.0485 C   0  0  0  0  0  0  0  0  0  0  0  0
   19.4530   16.3335    7.5653 C   0  0  0  0  0  0  0  0  0  0  0  0
   19.4779   16.3322    9.1077 C   0  0  0  0  0  0  0  0  0  0  0  0
   18.2001   13.0370    5.3119 C   0  0  0  0  0  0  0  0  0  0  0  0
   19.0695   12.2404    4.9382 O   0  0  0  0  0  0  0  0  0  0  0  0
   15.2436   11.4335    4.2170 N   0  0  0  0  0  0  0  0  0  0  0  0
   16.8766   13.0760    4.5727 C   0  0  0  0  0  0  0  0  0  0  0  0
   15.7077   13.3150    5.5421 C   0  0  0  0  0  0  0  0  0  0  0  0
   14.6270   12.3197    5.1605 C   0  0  0  0  0  0  0  0  0  0  0  0
   16.5551   11.7510    3.9334 C   0  0  0  0  0  0  0  0  0  0  0  0
   17.3066   11.0903    3.2268 O   0  0  0  0  0  0  0  0  0  0  0  0
   14.5427   10.3262    3.6003 C   0  0  0  0  0  0  0  0  0  0  0  0
   13.3706   10.7955    2.7684 C   0  0  0  0  0  0  0  0  0  0  0  0
   12.6622    9.8828    1.9713 C   0  0  0  0  0  0  0  0  0  0  0  0
   11.5846   10.3037    1.1906 C   0  0  0  0  0  0  0  0  0  0  0  0
   11.2157   11.6464    1.1798 C   0  0  0  0  0  0  0  0  0  0  0  0
   11.9212   12.5670    1.9531 C   0  0  0  0  0  0  0  0  0  0  0  0
   12.9922   12.1448    2.7451 C   0  0  0  0  0  0  0  0  0  0  0  0
   17.7367   16.9677    5.7748 N   0  0  0  0  0  0  0  0  0  0  0  0
   18.8183   17.4552    4.9237 C   0  0  0  0  0  0  0  0  0  0  0  0
   16.4465   16.3747    3.8841 N   0  0  0  0  0  0  0  0  0  0  0  0
   14.0868   16.7039    3.5796 N   0  0  0  0  0  0  0  0  0  0  0  0
   13.0380   17.8172    5.3950 N   0  0  0  0  0  0  0  0  0  0  0  0
   15.2936   16.2739    3.2038 C   0  0  0  0  0  0  0  0  0  0  0  0
   14.1362   17.2765    4.7878 C   0  0  0  0  0  0  0  0  0  0  0  0
   13.3884   18.3328    6.6098 C   0  0  0  0  0  0  0  0  0  0  0  0
   14.7405   18.1153    6.7737 C   0  0  0  0  0  0  0  0  0  0  0  0
   15.2442   17.4346    5.6179 C   0  0  0  0  0  0  0  0  0  0  0  0
   16.4880   16.9371    5.1314 C   0  0  0  0  0  0  0  0  0  0  0  0
   12.1199   17.8293    4.9752 H   0  0  0  0  0  0  0  0  0  0  0  0
 27 30  1  0  0  0
  1  8  1  0  0  0
 10 14  1  0  0  0
 28 26  2  0  0  0
 29 27  1  0  0  0
 31 32  1  0  0  0
 32 29  2  0  0  0
 33 23  1  0  0  0
 33 25  2  0  0  0
  2 23  1  0  0  0
  2  3  1  0  0  0
  3  1  1  0  0  0
  4  1  1  0  0  0
  4  5  1  0  0  0
  5  6  1  0  0  0
  6  7  1  0  0  0
  6  2  1  0  0  0
 11  8  1  0  0  0
 11 12  1  0  0  0
 11 14  1  0  0  0
 12 13  1  0  0  0
 13 10  1  0  0  0
 16 10  1  0  0  0
 16 17  1  0  0  0
 18 19  2  0  0  0
 20 21  2  0  0  0
 22 17  2  0  0  0
 24 23  1  0  0  0
 28 25  1  0  0  0
 29 26  1  0  0  0
 30 31  2  0  0  0
 32 33  1  0  0  0
  8  9  2  0  0  0
 14 15  2  0  0  0
 17 18  1  0  0  0
 19 20  1  0  0  0
 21 22  1  0  0  0
 27 34  1  0  0  0
M  END
> <minimizedAffinity>
-8.89412

$$$$
CHEMBL1630793


 34 38  0  0  0  0  0  0  0  0999 V2000
   17.9168   11.2604    4.6254 N   0  0  0  0  0  0  0  0  0  0  0  0
   15.6703   10.6667    3.6700 C   0  0  0  0  0  0  0  0  0  0  0  0
   17.0518   11.3249    3.4454 C   0  0  0  0  0  0  0  0  0  0  0  0
   18.1748    9.9029    5.0921 C   0  0  0  0  0  0  0  0  0  0  0  0
   16.8710    9.2009    5.4571 C   0  0  0  0  0  0  0  0  0  0  0  0
   15.7983    9.2666    4.3442 C   0  0  0  0  0  0  0  0  0  0  0  0
   16.1058    8.1839    3.2894 C   0  0  0  0  0  0  0  0  0  0  0  0
   18.4879   12.3238    5.3108 C   0  0  0  0  0  0  0  0  0  0  0  0
   19.2545   12.1268    6.2614 O   0  0  0  0  0  0  0  0  0  0  0  0
   18.2339   15.7699    6.0661 N   0  0  0  0  0  0  0  0  0  0  0  0
   18.2101   13.7503    4.8779 C   0  0  0  0  0  0  0  0  0  0  0  0
   19.5163   14.4985    4.5658 C   0  0  0  0  0  0  0  0  0  0  0  0
   19.4025   15.8540    5.2396 C   0  0  0  0  0  0  0  0  0  0  0  0
   17.5829   14.5571    5.9840 C   0  0  0  0  0  0  0  0  0  0  0  0
   16.6168   14.2250    6.6599 O   0  0  0  0  0  0  0  0  0  0  0  0
   17.7681   16.8681    6.8875 C   0  0  0  0  0  0  0  0  0  0  0  0
   16.5445   17.5322    6.2978 C   0  0  0  0  0  0  0  0  0  0  0  0
   16.6474   18.2685    5.1071 C   0  0  0  0  0  0  0  0  0  0  0  0
   15.5284   18.8952    4.5567 C   0  0  0  0  0  0  0  0  0  0  0  0
   14.2970   18.8124    5.2015 C   0  0  0  0  0  0  0  0  0  0  0  0
   14.1837   18.0992    6.3939 C   0  0  0  0  0  0  0  0  0  0  0  0
   15.3004   17.4605    6.9393 C   0  0  0  0  0  0  0  0  0  0  0  0
   14.7031   11.5803    4.3095 N   0  0  0  0  0  0  0  0  0  0  0  0
   14.8909   12.0990    5.6613 C   0  0  0  0  0  0  0  0  0  0  0  0
   12.7700   11.5278    2.9489 N   0  0  0  0  0  0  0  0  0  0  0  0
   11.6020   13.4092    2.0185 N   0  0  0  0  0  0  0  0  0  0  0  0
   12.6146   15.4987    2.5126 N   0  0  0  0  0  0  0  0  0  0  0  0
   11.7833   12.1062    2.2459 C   0  0  0  0  0  0  0  0  0  0  0  0
   12.5584   14.1367    2.6070 C   0  0  0  0  0  0  0  0  0  0  0  0
   13.6953   15.9657    3.2042 C   0  0  0  0  0  0  0  0  0  0  0  0
   14.3390   14.8732    3.7469 C   0  0  0  0  0  0  0  0  0  0  0  0
   13.6260   13.6857    3.3806 C   0  0  0  0  0  0  0  0  0  0  0  0
   13.7312   12.2773    3.5720 C   0  0  0  0  0  0  0  0  0  0  0  0
   11.9479   16.0479    1.9901 H   0  0  0  0  0  0  0  0  0  0  0  0
 27 30  1  0  0  0
  1  8  1  0  0  0
 10 14  1  0  0  0
 28 26  2  0  0  0
 29 27  1  0  0  0
 31 32  1  0  0  0
 32 29  2  0  0  0
 33 23  1  0  0  0
 33 25  2  0  0  0
  2 23  1  0  0  0
  2  3  1  0  0  0
  3  1  1  0  0  0
  4  1  1  0  0  0
  4  5  1  0  0  0
  5  6  1  0  0  0
  6  7  1  0  0  0
  6  2  1  0  0  0
 11  8  1  0  0  0
 11 12  1  0  0  0
 11 14  1  0  0  0
 12 13  1  0  0  0
 13 10  1  0  0  0
 16 10  1  0  0  0
 16 17  1  0  0  0
 18 19  2  0  0  0
 20 21  2  0  0  0
 22 17  2  0  0  0
 24 23  1  0  0  0
 28 25  1  0  0  0
 29 26  1  0  0  0
 30 31  2  0  0  0
 32 33  1  0  0  0
  8  9  2  0  0  0
 14 15  2  0  0  0
 17 18  1  0  0  0
 19 20  1  0  0  0
 21 22  1  0  0  0
 27 34  1  0  0  0
M  END
> <minimizedAffinity>
-8.78631

$$$$
CHEMBL1630793


 34 38  0  0  0  0  0  0  0  0999 V2000
   13.9438   14.3782    4.0801 N   0  0  0  0  0  0  0  0  0  0  0  0
   14.7282   11.9950    3.9493 C   0  0  0  0  0  0  0  0  0  0  0  0
   14.1968   13.1478    4.8330 C   0  0  0  0  0  0  0  0  0  0  0  0
   12.9872   14.2152    2.9911 C   0  0  0  0  0  0  0  0  0  0  0  0
   13.4805   13.1749    1.9909 C   0  0  0  0  0  0  0  0  0  0  0  0
   13.8922   11.8337    2.6429 C   0  0  0  0  0  0  0  0  0  0  0  0
   12.6235   10.9986    2.9118 C   0  0  0  0  0  0  0  0  0  0  0  0
   14.5051   15.6291    4.2964 C   0  0  0  0  0  0  0  0  0  0  0  0
   14.1559   16.6058    3.6225 O   0  0  0  0  0  0  0  0  0  0  0  0
   16.8583   17.6708    5.9712 N   0  0  0  0  0  0  0  0  0  0  0  0
   15.5323   15.8269    5.3943 C   0  0  0  0  0  0  0  0  0  0  0  0
   14.9113   16.5271    6.6139 C   0  0  0  0  0  0  0  0  0  0  0  0
   15.8901   17.6113    7.0271 C   0  0  0  0  0  0  0  0  0  0  0  0
   16.6373   16.7551    4.9642 C   0  0  0  0  0  0  0  0  0  0  0  0
   17.2793   16.6782    3.9238 O   0  0  0  0  0  0  0  0  0  0  0  0
   17.9782   18.5891    5.9787 C   0  0  0  0  0  0  0  0  0  0  0  0
   18.9297   18.3067    7.1194 C   0  0  0  0  0  0  0  0  0  0  0  0
   19.1878   16.9835    7.5103 C   0  0  0  0  0  0  0  0  0  0  0  0
   20.0559   16.7084    8.5680 C   0  0  0  0  0  0  0  0  0  0  0  0
   20.6596   17.7535    9.2625 C   0  0  0  0  0  0  0  0  0  0  0  0
   20.3989   19.0731    8.8964 C   0  0  0  0  0  0  0  0  0  0  0  0
   19.5400   19.3496    7.8295 C   0  0  0  0  0  0  0  0  0  0  0  0
   16.1895   12.0591    3.7502 N   0  0  0  0  0  0  0  0  0  0  0  0
   16.8581   13.2488    3.2311 C   0  0  0  0  0  0  0  0  0  0  0  0
   18.2482   11.6320    4.8318 N   0  0  0  0  0  0  0  0  0  0  0  0
   19.0487    9.5160    5.6389 N   0  0  0  0  0  0  0  0  0  0  0  0
   17.5778    7.7073    5.1915 N   0  0  0  0  0  0  0  0  0  0  0  0
   19.1371   10.8339    5.4442 C   0  0  0  0  0  0  0  0  0  0  0  0
   17.9052    9.0329    5.1397 C   0  0  0  0  0  0  0  0  0  0  0  0
   16.3626    7.5079    4.6019 C   0  0  0  0  0  0  0  0  0  0  0  0
   15.9118    8.7360    4.1647 C   0  0  0  0  0  0  0  0  0  0  0  0
   16.8837    9.7334    4.5016 C   0  0  0  0  0  0  0  0  0  0  0  0
   17.0673   11.1382    4.3464 C   0  0  0  0  0  0  0  0  0  0  0  0
   18.1741    7.0027    5.6005 H   0  0  0  0  0  0  0  0  0  0  0  0
 27 30  1  0  0  0
  1  8  1  0  0  0
 10 14  1  0  0  0
 28 26  2  0  0  0
 29 27  1  0  0  0
 31 32  1  0  0  0
 32 29  2  0  0  0
 33 23  1  0  0  0
 33 25  2  0  0  0
  2 23  1  0  0  0
  2  3  1  0  0  0
  3  1  1  0  0  0
  4  1  1  0  0  0
  4  5  1  0  0  0
  5  6  1  0  0  0
  6  7  1  0  0  0
  6  2  1  0  0  0
 11  8  1  0  0  0
 11 12  1  0  0  0
 11 14  1  0  0  0
 12 13  1  0  0  0
 13 10  1  0  0  0
 16 10  1  0  0  0
 16 17  1  0  0  0
 18 19  2  0  0  0
 20 21  2  0  0  0
 22 17  2  0  0  0
 24 23  1  0  0  0
 28 25  1  0  0  0
 29 26  1  0  0  0
 30 31  2  0  0  0
 32 33  1  0  0  0
  8  9  2  0  0  0
 14 15  2  0  0  0
 17 18  1  0  0  0
 19 20  1  0  0  0
 21 22  1  0  0  0
 27 34  1  0  0  0
M  END
> <minimizedAffinity>
-8.69957

$$$$
CHEMBL1630793


 34 38  0  0  0  0  0  0  0  0999 V2000
   16.6261   17.8469    6.5689 N   0  0  0  0  0  0  0  0  0  0  0  0
   14.5502   17.4289    5.2169 C   0  0  0  0  0  0  0  0  0  0  0  0
   15.2974   17.2313    6.5567 C   0  0  0  0  0  0  0  0  0  0  0  0
   16.6118   19.2821    6.3095 C   0  0  0  0  0  0  0  0  0  0  0  0
   15.9970   19.5777    4.9455 C   0  0  0  0  0  0  0  0  0  0  0  0
   14.6195   18.9078    4.7275 C   0  0  0  0  0  0  0  0  0  0  0  0
   13.5350   19.7585    5.4198 C   0  0  0  0  0  0  0  0  0  0  0  0
   17.8436   17.2193    6.7937 C   0  0  0  0  0  0  0  0  0  0  0  0
   18.8940   17.8711    6.8385 O   0  0  0  0  0  0  0  0  0  0  0  0
   19.4323   14.0940    6.3253 N   0  0  0  0  0  0  0  0  0  0  0  0
   17.9005   15.7222    7.0281 C   0  0  0  0  0  0  0  0  0  0  0  0
   18.8380   15.3800    8.1975 C   0  0  0  0  0  0  0  0  0  0  0  0
   19.6994   14.2215    7.7283 C   0  0  0  0  0  0  0  0  0  0  0  0
   18.5019   14.9960    5.8540 C   0  0  0  0  0  0  0  0  0  0  0  0
   18.1799   15.1326    4.6800 O   0  0  0  0  0  0  0  0  0  0  0  0
   20.0620   13.0920    5.4904 C   0  0  0  0  0  0  0  0  0  0  0  0
   19.2363   11.8281    5.4085 C   0  0  0  0  0  0  0  0  0  0  0  0
   19.5531   10.7259    6.2179 C   0  0  0  0  0  0  0  0  0  0  0  0
   18.8059    9.5493    6.1457 C   0  0  0  0  0  0  0  0  0  0  0  0
   17.7464    9.4520    5.2474 C   0  0  0  0  0  0  0  0  0  0  0  0
   17.4313   10.5326    4.4249 C   0  0  0  0  0  0  0  0  0  0  0  0
   18.1705   11.7156    4.5053 C   0  0  0  0  0  0  0  0  0  0  0  0
   14.9210   16.4196    4.2055 N   0  0  0  0  0  0  0  0  0  0  0  0
   15.8448   16.7084    3.1124 C   0  0  0  0  0  0  0  0  0  0  0  0
   15.2058   14.4898    5.5418 N   0  0  0  0  0  0  0  0  0  0  0  0
   14.3777   12.2807    5.0910 N   0  0  0  0  0  0  0  0  0  0  0  0
   13.2250   12.0987    3.0237 N   0  0  0  0  0  0  0  0  0  0  0  0
   15.0160   13.1922    5.8286 C   0  0  0  0  0  0  0  0  0  0  0  0
   13.9029   12.8227    3.9636 C   0  0  0  0  0  0  0  0  0  0  0  0
   12.8693   12.9090    1.9840 C   0  0  0  0  0  0  0  0  0  0  0  0
   13.3353   14.1749    2.2719 C   0  0  0  0  0  0  0  0  0  0  0  0
   14.0002   14.1468    3.5408 C   0  0  0  0  0  0  0  0  0  0  0  0
   14.6952   15.0466    4.4002 C   0  0  0  0  0  0  0  0  0  0  0  0
   13.0420   11.1095    3.1092 H   0  0  0  0  0  0  0  0  0  0  0  0
 27 30  1  0  0  0
  1  8  1  0  0  0
 10 14  1  0  0  0
 28 26  2  0  0  0
 29 27  1  0  0  0
 31 32  1  0  0  0
 32 29  2  0  0  0
 33 23  1  0  0  0
 33 25  2  0  0  0
  2 23  1  0  0  0
  2  3  1  0  0  0
  3  1  1  0  0  0
  4  1  1  0  0  0
  4  5  1  0  0  0
  5  6  1  0  0  0
  6  7  1  0  0  0
  6  2  1  0  0  0
 11  8  1  0  0  0
 11 12  1  0  0  0
 11 14  1  0  0  0
 12 13  1  0  0  0
 13 10  1  0  0  0
 16 10  1  0  0  0
 16 17  1  0  0  0
 18 19  2  0  0  0
 20 21  2  0  0  0
 22 17  2  0  0  0
 24 23  1  0  0  0
 28 25  1  0  0  0
 29 26  1  0  0  0
 30 31  2  0  0  0
 32 33  1  0  0  0
  8  9  2  0  0  0
 14 15  2  0  0  0
 17 18  1  0  0  0
 19 20  1  0  0  0
 21 22  1  0  0  0
 27 34  1  0  0  0
M  END
> <minimizedAffinity>
-8.51992

$$$$
CHEMBL1630793


 34 38  0  0  0  0  0  0  0  0999 V2000
   19.2595   13.6505    6.7816 N   0  0  0  0  0  0  0  0  0  0  0  0
   18.9176   15.9983    7.6079 C   0  0  0  0  0  0  0  0  0  0  0  0
   18.3249   14.5826    7.4159 C   0  0  0  0  0  0  0  0  0  0  0  0
   20.5095   13.4813    7.5140 C   0  0  0  0  0  0  0  0  0  0  0  0
   21.2371   14.8143    7.6546 C   0  0  0  0  0  0  0  0  0  0  0  0
   20.3503   15.9484    8.2212 C   0  0  0  0  0  0  0  0  0  0  0  0
   20.2777   15.8067    9.7555 C   0  0  0  0  0  0  0  0  0  0  0  0
   19.0749   12.9450    5.6006 C   0  0  0  0  0  0  0  0  0  0  0  0
   19.9243   12.1373    5.2053 O   0  0  0  0  0  0  0  0  0  0  0  0
   15.8891   11.7916    4.5849 N   0  0  0  0  0  0  0  0  0  0  0  0
   17.8045   13.1256    4.7925 C   0  0  0  0  0  0  0  0  0  0  0  0
   16.6813   13.7262    5.6534 C   0  0  0  0  0  0  0  0  0  0  0  0
   15.4356   12.9104    5.3586 C   0  0  0  0  0  0  0  0  0  0  0  0
   17.2444   11.8063    4.3309 C   0  0  0  0  0  0  0  0  0  0  0  0
   17.8685   10.9159    3.7668 O   0  0  0  0  0  0  0  0  0  0  0  0
   14.9995   10.7595    4.0942 C   0  0  0  0  0  0  0  0  0  0  0  0
   13.8584   11.3369    3.2876 C   0  0  0  0  0  0  0  0  0  0  0  0
   12.8821   10.4892    2.7413 C   0  0  0  0  0  0  0  0  0  0  0  0
   11.8288   11.0074    1.9863 C   0  0  0  0  0  0  0  0  0  0  0  0
   11.7508   12.3773    1.7491 C   0  0  0  0  0  0  0  0  0  0  0  0
   12.7231   13.2292    2.2708 C   0  0  0  0  0  0  0  0  0  0  0  0
   13.7710   12.7133    3.0377 C   0  0  0  0  0  0  0  0  0  0  0  0
   18.7852   16.8380    6.4010 N   0  0  0  0  0  0  0  0  0  0  0  0
   19.3392   16.4451    5.1085 C   0  0  0  0  0  0  0  0  0  0  0  0
   18.3315   19.1178    5.9680 N   0  0  0  0  0  0  0  0  0  0  0  0
   16.1915   20.2066    6.0332 N   0  0  0  0  0  0  0  0  0  0  0  0
   14.4132   18.7745    6.6828 N   0  0  0  0  0  0  0  0  0  0  0  0
   17.5110   20.1716    5.8326 C   0  0  0  0  0  0  0  0  0  0  0  0
   15.7296   19.0052    6.3983 C   0  0  0  0  0  0  0  0  0  0  0  0
   14.2378   17.4658    7.0302 C   0  0  0  0  0  0  0  0  0  0  0  0
   15.4728   16.8548    6.9663 C   0  0  0  0  0  0  0  0  0  0  0  0
   16.4481   17.8221    6.5589 C   0  0  0  0  0  0  0  0  0  0  0  0
   17.8510   17.8840    6.3155 C   0  0  0  0  0  0  0  0  0  0  0  0
   13.7024   19.4904    6.6450 H   0  0  0  0  0  0  0  0  0  0  0  0
 27 30  1  0  0  0
  1  8  1  0  0  0
 10 14  1  0  0  0
 28 26  2  0  0  0
 29 27  1  0  0  0
 31 32  1  0  0  0
 32 29  2  0  0  0
 33 23  1  0  0  0
 33 25  2  0  0  0
  2 23  1  0  0  0
  2  3  1  0  0  0
  3  1  1  0  0  0
  4  1  1  0  0  0
  4  5  1  0  0  0
  5  6  1  0  0  0
  6  7  1  0  0  0
  6  2  1  0  0  0
 11  8  1  0  0  0
 11 12  1  0  0  0
 11 14  1  0  0  0
 12 13  1  0  0  0
 13 10  1  0  0  0
 16 10  1  0  0  0
 16 17  1  0  0  0
 18 19  2  0  0  0
 20 21  2  0  0  0
 22 17  2  0  0  0
 24 23  1  0  0  0
 28 25  1  0  0  0
 29 26  1  0  0  0
 30 31  2  0  0  0
 32 33  1  0  0  0
  8  9  2  0  0  0
 14 15  2  0  0  0
 17 18  1  0  0  0
 19 20  1  0  0  0
 21 22  1  0  0  0
 27 34  1  0  0  0
M  END
> <minimizedAffinity>
-8.38789

$$$$
CHEMBL1630793


 34 38  0  0  0  0  0  0  0  0999 V2000
   16.6150   17.4085    6.7816 N   0  0  0  0  0  0  0  0  0  0  0  0
   14.7081   16.4314    5.4698 C   0  0  0  0  0  0  0  0  0  0  0  0
   15.5244   16.4311    6.7835 C   0  0  0  0  0  0  0  0  0  0  0  0
   16.1735   18.7820    6.5677 C   0  0  0  0  0  0  0  0  0  0  0  0
   15.4542   18.9153    5.2295 C   0  0  0  0  0  0  0  0  0  0  0  0
   14.3261   17.8764    5.0253 C   0  0  0  0  0  0  0  0  0  0  0  0
   13.0640   18.3563    5.7710 C   0  0  0  0  0  0  0  0  0  0  0  0
   17.9695   17.1602    6.9561 C   0  0  0  0  0  0  0  0  0  0  0  0
   18.7846   18.0898    6.9948 O   0  0  0  0  0  0  0  0  0  0  0  0
   20.6207   14.8198    7.0246 N   0  0  0  0  0  0  0  0  0  0  0  0
   18.4690   15.7405    7.1419 C   0  0  0  0  0  0  0  0  0  0  0  0
   18.9977   15.5218    8.5688 C   0  0  0  0  0  0  0  0  0  0  0  0
   20.3196   14.7895    8.4261 C   0  0  0  0  0  0  0  0  0  0  0  0
   19.6568   15.4473    6.2640 C   0  0  0  0  0  0  0  0  0  0  0  0
   19.7369   15.6689    5.0619 O   0  0  0  0  0  0  0  0  0  0  0  0
   21.8131   14.2214    6.4608 C   0  0  0  0  0  0  0  0  0  0  0  0
   22.8925   14.0296    7.5021 C   0  0  0  0  0  0  0  0  0  0  0  0
   23.8401   15.0400    7.7289 C   0  0  0  0  0  0  0  0  0  0  0  0
   24.8480   14.8725    8.6798 C   0  0  0  0  0  0  0  0  0  0  0  0
   24.9346   13.6839    9.4000 C   0  0  0  0  0  0  0  0  0  0  0  0
   24.0107   12.6650    9.1728 C   0  0  0  0  0  0  0  0  0  0  0  0
   22.9935   12.8363    8.2303 C   0  0  0  0  0  0  0  0  0  0  0  0
   15.3238   15.5982    4.4183 N   0  0  0  0  0  0  0  0  0  0  0  0
   16.4926   16.0324    3.6585 C   0  0  0  0  0  0  0  0  0  0  0  0
   15.9178   13.3700    4.9409 N   0  0  0  0  0  0  0  0  0  0  0  0
   14.7680   11.3697    4.2728 N   0  0  0  0  0  0  0  0  0  0  0  0
   12.8879   11.7713    2.8803 N   0  0  0  0  0  0  0  0  0  0  0  0
   15.7293   12.0412    4.9111 C   0  0  0  0  0  0  0  0  0  0  0  0
   13.9461   12.2055    3.6278 C   0  0  0  0  0  0  0  0  0  0  0  0
   12.2354   12.8410    2.3378 C   0  0  0  0  0  0  0  0  0  0  0  0
   12.8980   13.9784    2.7498 C   0  0  0  0  0  0  0  0  0  0  0  0
   13.9994   13.5972    3.5832 C   0  0  0  0  0  0  0  0  0  0  0  0
   15.0590   14.2232    4.3018 C   0  0  0  0  0  0  0  0  0  0  0  0
   12.6572   10.7963    2.7567 H   0  0  0  0  0  0  0  0  0  0  0  0
 27 30  1  0  0  0
  1  8  1  0  0  0
 10 14  1  0  0  0
 28 26  2  0  0  0
 29 27  1  0  0  0
 31 32  1  0  0  0
 32 29  2  0  0  0
 33 23  1  0  0  0
 33 25  2  0  0  0
  2 23  1  0  0  0
  2  3  1  0  0  0
  3  1  1  0  0  0
  4  1  1  0  0  0
  4  5  1  0  0  0
  5  6  1  0  0  0
  6  7  1  0  0  0
  6  2  1  0  0  0
 11  8  1  0  0  0
 11 12  1  0  0  0
 11 14  1  0  0  0
 12 13  1  0  0  0
 13 10  1  0  0  0
 16 10  1  0  0  0
 16 17  1  0  0  0
 18 19  2  0  0  0
 20 21  2  0  0  0
 22 17  2  0  0  0
 24 23  1  0  0  0
 28 25  1  0  0  0
 29 26  1  0  0  0
 30 31  2  0  0  0
 32 33  1  0  0  0
  8  9  2  0  0  0
 14 15  2  0  0  0
 17 18  1  0  0  0
 19 20  1  0  0  0
 21 22  1  0  0  0
 27 34  1  0  0  0
M  END
> <minimizedAffinity>
-8.24188

$$$$
CHEMBL1630796


 26 29  0  0  0  0  0  0  0  0999 V2000
   13.6292   13.8891    2.5162 N   0  0  0  0  0  0  0  0  0  0  0  0
   15.8771   14.4294    3.5311 C   0  0  0  0  0  0  0  0  0  0  0  0
   15.0753   13.7483    2.3976 C   0  0  0  0  0  0  0  0  0  0  0  0
   13.1939   15.2785    2.6423 C   0  0  0  0  0  0  0  0  0  0  0  0
   13.7983   15.9500    3.8732 C   0  0  0  0  0  0  0  0  0  0  0  0
   15.3312   15.8130    3.9671 C   0  0  0  0  0  0  0  0  0  0  0  0
   15.9780   16.9197    3.1138 C   0  0  0  0  0  0  0  0  0  0  0  0
   12.6602   12.8847    2.6267 C   0  0  0  0  0  0  0  0  0  0  0  0
   11.4833   13.1985    2.8458 O   0  0  0  0  0  0  0  0  0  0  0  0
   12.9588   11.4430    2.4995 C   0  0  0  0  0  0  0  0  0  0  0  0
   12.3380   10.4657    1.7431 C   0  0  0  0  0  0  0  0  0  0  0  0
   14.1095    9.4609    3.1119 C   0  0  0  0  0  0  0  0  0  0  0  0
   13.9667   10.8112    3.3293 C   0  0  0  0  0  0  0  0  0  0  0  0
   13.0404    8.9076    1.9084 S   0  0  0  0  0  0  0  0  0  0  0  0
   16.1703   13.5075    4.6552 N   0  0  0  0  0  0  0  0  0  0  0  0
   15.1427   13.3281    5.6659 C   0  0  0  0  0  0  0  0  0  0  0  0
   18.4073   14.0073    5.1653 N   0  0  0  0  0  0  0  0  0  0  0  0
   20.1881   12.4022    5.4264 N   0  0  0  0  0  0  0  0  0  0  0  0
   19.4605   10.1431    5.1943 N   0  0  0  0  0  0  0  0  0  0  0  0
   19.6804   13.6402    5.4026 C   0  0  0  0  0  0  0  0  0  0  0  0
   19.2343   11.4909    5.1988 C   0  0  0  0  0  0  0  0  0  0  0  0
   18.2868    9.4770    4.9676 C   0  0  0  0  0  0  0  0  0  0  0  0
   17.2957   10.4247    4.8166 C   0  0  0  0  0  0  0  0  0  0  0  0
   17.8875   11.7197    4.9443 C   0  0  0  0  0  0  0  0  0  0  0  0
   17.4588   13.0715    4.9184 C   0  0  0  0  0  0  0  0  0  0  0  0
   20.3670    9.7298    5.3572 H   0  0  0  0  0  0  0  0  0  0  0  0
 19 22  1  0  0  0
  1  8  1  0  0  0
 20 18  2  0  0  0
 21 19  1  0  0  0
 23 24  1  0  0  0
 24 21  2  0  0  0
 25 15  1  0  0  0
 25 17  2  0  0  0
  2 15  1  0  0  0
  2  3  1  0  0  0
  3  1  1  0  0  0
  4  1  1  0  0  0
  4  5  1  0  0  0
  5  6  1  0  0  0
  6  7  1  0  0  0
  6  2  1  0  0  0
  8 10  1  0  0  0
 11 14  1  0  0  0
 12 14  1  0  0  0
 13 10  1  0  0  0
 16 15  1  0  0  0
 20 17  1  0  0  0
 21 18  1  0  0  0
 22 23  2  0  0  0
 24 25  1  0  0  0
  8  9  2  0  0  0
 10 11  2  0  0  0
 12 13  2  0  0  0
 19 26  1  0  0  0
M  END
> <minimizedAffinity>
-8.53165

$$$$
CHEMBL1630796


 26 29  0  0  0  0  0  0  0  0999 V2000
   13.6353   13.9427    2.5268 N   0  0  0  0  0  0  0  0  0  0  0  0
   15.8834   14.3774    3.5906 C   0  0  0  0  0  0  0  0  0  0  0  0
   15.0761   13.7411    2.4352 C   0  0  0  0  0  0  0  0  0  0  0  0
   13.2572   15.3483    2.6574 C   0  0  0  0  0  0  0  0  0  0  0  0
   13.8650   15.9828    3.9063 C   0  0  0  0  0  0  0  0  0  0  0  0
   15.3885   15.7793    4.0289 C   0  0  0  0  0  0  0  0  0  0  0  0
   16.0989   16.8646    3.1990 C   0  0  0  0  0  0  0  0  0  0  0  0
   12.6223   12.9798    2.6087 C   0  0  0  0  0  0  0  0  0  0  0  0
   11.4556   13.3420    2.8077 O   0  0  0  0  0  0  0  0  0  0  0  0
   12.8615   11.5278    2.4738 C   0  0  0  0  0  0  0  0  0  0  0  0
   12.1786   10.5745    1.7408 C   0  0  0  0  0  0  0  0  0  0  0  0
   13.9567    9.5038    3.0497 C   0  0  0  0  0  0  0  0  0  0  0  0
   13.8727   10.8586    3.2696 C   0  0  0  0  0  0  0  0  0  0  0  0
   12.8267    8.9909    1.8846 S   0  0  0  0  0  0  0  0  0  0  0  0
   16.1144   13.4342    4.7115 N   0  0  0  0  0  0  0  0  0  0  0  0
   15.1917   13.4796    5.8323 C   0  0  0  0  0  0  0  0  0  0  0  0
   17.2894   11.4020    4.7756 N   0  0  0  0  0  0  0  0  0  0  0  0
   19.6550   11.1512    5.1713 N   0  0  0  0  0  0  0  0  0  0  0  0
   20.7920   13.2314    5.4293 N   0  0  0  0  0  0  0  0  0  0  0  0
   18.4218   10.6909    4.9298 C   0  0  0  0  0  0  0  0  0  0  0  0
   19.6631   12.4887    5.2254 C   0  0  0  0  0  0  0  0  0  0  0  0
   20.4819   14.5639    5.3979 C   0  0  0  0  0  0  0  0  0  0  0  0
   19.1240   14.6678    5.1775 C   0  0  0  0  0  0  0  0  0  0  0  0
   18.5810   13.3488    5.0819 C   0  0  0  0  0  0  0  0  0  0  0  0
   17.3137   12.7547    4.8521 C   0  0  0  0  0  0  0  0  0  0  0  0
   21.7081   12.8281    5.5605 H   0  0  0  0  0  0  0  0  0  0  0  0
 19 22  1  0  0  0
  1  8  1  0  0  0
 20 18  2  0  0  0
 21 19  1  0  0  0
 23 24  1  0  0  0
 24 21  2  0  0  0
 25 15  1  0  0  0
 25 17  2  0  0  0
  2 15  1  0  0  0
  2  3  1  0  0  0
  3  1  1  0  0  0
  4  1  1  0  0  0
  4  5  1  0  0  0
  5  6  1  0  0  0
  6  7  1  0  0  0
  6  2  1  0  0  0
  8 10  1  0  0  0
 11 14  1  0  0  0
 12 14  1  0  0  0
 13 10  1  0  0  0
 16 15  1  0  0  0
 20 17  1  0  0  0
 21 18  1  0  0  0
 22 23  2  0  0  0
 24 25  1  0  0  0
  8  9  2  0  0  0
 10 11  2  0  0  0
 12 13  2  0  0  0
 19 26  1  0  0  0
M  END
> <minimizedAffinity>
-8.51153

$$$$
CHEMBL1630796


 26 29  0  0  0  0  0  0  0  0999 V2000
   16.9260   15.8303    5.4834 N   0  0  0  0  0  0  0  0  0  0  0  0
   16.0661   13.9334    4.0561 C   0  0  0  0  0  0  0  0  0  0  0  0
   16.2882   15.4542    4.2277 C   0  0  0  0  0  0  0  0  0  0  0  0
   18.1880   15.1326    5.7205 C   0  0  0  0  0  0  0  0  0  0  0  0
   17.9960   13.6185    5.7670 C   0  0  0  0  0  0  0  0  0  0  0  0
   17.2397   13.0494    4.5497 C   0  0  0  0  0  0  0  0  0  0  0  0
   18.2445   12.8314    3.4034 C   0  0  0  0  0  0  0  0  0  0  0  0
   16.4375   16.6659    6.4949 C   0  0  0  0  0  0  0  0  0  0  0  0
   17.0700   16.7707    7.5536 O   0  0  0  0  0  0  0  0  0  0  0  0
   15.1869   17.4446    6.3794 C   0  0  0  0  0  0  0  0  0  0  0  0
   14.8840   18.5351    5.5846 C   0  0  0  0  0  0  0  0  0  0  0  0
   12.9844   18.0175    7.0492 C   0  0  0  0  0  0  0  0  0  0  0  0
   14.0646   17.1940    7.2634 C   0  0  0  0  0  0  0  0  0  0  0  0
   13.2808   19.1169    5.7839 S   0  0  0  0  0  0  0  0  0  0  0  0
   14.7310   13.4953    4.5306 N   0  0  0  0  0  0  0  0  0  0  0  0
   14.5284   13.3826    5.9645 C   0  0  0  0  0  0  0  0  0  0  0  0
   12.8648   13.7212    3.1233 N   0  0  0  0  0  0  0  0  0  0  0  0
   11.7777   11.9344    1.9227 N   0  0  0  0  0  0  0  0  0  0  0  0
   12.8377    9.8191    2.2205 N   0  0  0  0  0  0  0  0  0  0  0  0
   11.9299   13.2089    2.3015 C   0  0  0  0  0  0  0  0  0  0  0  0
   12.7293   11.1604    2.4588 C   0  0  0  0  0  0  0  0  0  0  0  0
   13.9267    9.3178    2.8804 C   0  0  0  0  0  0  0  0  0  0  0  0
   14.5169   10.3637    3.5593 C   0  0  0  0  0  0  0  0  0  0  0  0
   13.7535   11.5473    3.3147 C   0  0  0  0  0  0  0  0  0  0  0  0
   13.8092   12.9189    3.6717 C   0  0  0  0  0  0  0  0  0  0  0  0
   12.2043    9.3061    1.6249 H   0  0  0  0  0  0  0  0  0  0  0  0
 19 22  1  0  0  0
  1  8  1  0  0  0
 20 18  2  0  0  0
 21 19  1  0  0  0
 23 24  1  0  0  0
 24 21  2  0  0  0
 25 15  1  0  0  0
 25 17  2  0  0  0
  2 15  1  0  0  0
  2  3  1  0  0  0
  3  1  1  0  0  0
  4  1  1  0  0  0
  4  5  1  0  0  0
  5  6  1  0  0  0
  6  7  1  0  0  0
  6  2  1  0  0  0
  8 10  1  0  0  0
 11 14  1  0  0  0
 12 14  1  0  0  0
 13 10  1  0  0  0
 16 15  1  0  0  0
 20 17  1  0  0  0
 21 18  1  0  0  0
 22 23  2  0  0  0
 24 25  1  0  0  0
  8  9  2  0  0  0
 10 11  2  0  0  0
 12 13  2  0  0  0
 19 26  1  0  0  0
M  END
> <minimizedAffinity>
-8.25971

$$$$
CHEMBL1630796


 26 29  0  0  0  0  0  0  0  0999 V2000
   15.1648   15.5597    4.4887 N   0  0  0  0  0  0  0  0  0  0  0  0
   14.7972   13.1035    4.0341 C   0  0  0  0  0  0  0  0  0  0  0  0
   14.8769   14.2525    5.0661 C   0  0  0  0  0  0  0  0  0  0  0  0
   14.2375   15.9362    3.4238 C   0  0  0  0  0  0  0  0  0  0  0  0
   14.2659   14.9359    2.2705 C   0  0  0  0  0  0  0  0  0  0  0  0
   14.0756   13.4710    2.7125 C   0  0  0  0  0  0  0  0  0  0  0  0
   12.5678   13.1890    2.8474 C   0  0  0  0  0  0  0  0  0  0  0  0
   16.2443   16.4116    4.7511 C   0  0  0  0  0  0  0  0  0  0  0  0
   16.3906   17.4336    4.0685 O   0  0  0  0  0  0  0  0  0  0  0  0
   17.2438   16.1625    5.8107 C   0  0  0  0  0  0  0  0  0  0  0  0
   17.3423   16.6866    7.0866 C   0  0  0  0  0  0  0  0  0  0  0  0
   19.2633   15.2286    6.6336 C   0  0  0  0  0  0  0  0  0  0  0  0
   18.4146   15.3445    5.5580 C   0  0  0  0  0  0  0  0  0  0  0  0
   18.6854   16.0965    7.9791 S   0  0  0  0  0  0  0  0  0  0  0  0
   16.0967   12.4134    3.8481 N   0  0  0  0  0  0  0  0  0  0  0  0
   17.1052   13.0801    3.0431 C   0  0  0  0  0  0  0  0  0  0  0  0
   17.2748   10.7216    4.9725 N   0  0  0  0  0  0  0  0  0  0  0  0
   16.8016    8.3595    4.8621 N   0  0  0  0  0  0  0  0  0  0  0  0
   14.9003    7.8422    3.5190 N   0  0  0  0  0  0  0  0  0  0  0  0
   17.4891    9.4289    5.2801 C   0  0  0  0  0  0  0  0  0  0  0  0
   15.7880    8.7246    4.0677 C   0  0  0  0  0  0  0  0  0  0  0  0
   13.9639    8.5213    2.7878 C   0  0  0  0  0  0  0  0  0  0  0  0
   14.2701    9.8640    2.8680 C   0  0  0  0  0  0  0  0  0  0  0  0
   15.4450   10.0109    3.6691 C   0  0  0  0  0  0  0  0  0  0  0  0
   16.2549   11.0708    4.1514 C   0  0  0  0  0  0  0  0  0  0  0  0
   14.9435    6.8444    3.6661 H   0  0  0  0  0  0  0  0  0  0  0  0
 19 22  1  0  0  0
  1  8  1  0  0  0
 20 18  2  0  0  0
 21 19  1  0  0  0
 23 24  1  0  0  0
 24 21  2  0  0  0
 25 15  1  0  0  0
 25 17  2  0  0  0
  2 15  1  0  0  0
  2  3  1  0  0  0
  3  1  1  0  0  0
  4  1  1  0  0  0
  4  5  1  0  0  0
  5  6  1  0  0  0
  6  7  1  0  0  0
  6  2  1  0  0  0
  8 10  1  0  0  0
 11 14  1  0  0  0
 12 14  1  0  0  0
 13 10  1  0  0  0
 16 15  1  0  0  0
 20 17  1  0  0  0
 21 18  1  0  0  0
 22 23  2  0  0  0
 24 25  1  0  0  0
  8  9  2  0  0  0
 10 11  2  0  0  0
 12 13  2  0  0  0
 19 26  1  0  0  0
M  END
> <minimizedAffinity>
-8.20675

$$$$
CHEMBL1630796


 26 29  0  0  0  0  0  0  0  0999 V2000
   16.7013   17.0892    6.4609 N   0  0  0  0  0  0  0  0  0  0  0  0
   14.6096   16.3665    5.2454 C   0  0  0  0  0  0  0  0  0  0  0  0
   15.6235   16.1105    6.3847 C   0  0  0  0  0  0  0  0  0  0  0  0
   16.2232   18.4675    6.5462 C   0  0  0  0  0  0  0  0  0  0  0  0
   15.3761   18.8475    5.3339 C   0  0  0  0  0  0  0  0  0  0  0  0
   14.2332   17.8556    5.0380 C   0  0  0  0  0  0  0  0  0  0  0  0
   13.0267   18.2154    5.9247 C   0  0  0  0  0  0  0  0  0  0  0  0
   18.0814   16.8780    6.3577 C   0  0  0  0  0  0  0  0  0  0  0  0
   18.8433   17.8527    6.3212 O   0  0  0  0  0  0  0  0  0  0  0  0
   18.7004   15.5381    6.2842 C   0  0  0  0  0  0  0  0  0  0  0  0
   18.8992   14.7045    5.1989 C   0  0  0  0  0  0  0  0  0  0  0  0
   19.6376   13.5870    7.2550 C   0  0  0  0  0  0  0  0  0  0  0  0
   19.1026   14.8325    7.4859 C   0  0  0  0  0  0  0  0  0  0  0  0
   19.6739   13.2234    5.5925 S   0  0  0  0  0  0  0  0  0  0  0  0
   14.9612   15.6467    3.9972 N   0  0  0  0  0  0  0  0  0  0  0  0
   15.7535   16.3577    3.0090 C   0  0  0  0  0  0  0  0  0  0  0  0
   13.1708   14.5731    2.9220 N   0  0  0  0  0  0  0  0  0  0  0  0
   12.8067   12.1912    2.8238 N   0  0  0  0  0  0  0  0  0  0  0  0
   14.5294   10.9311    3.8873 N   0  0  0  0  0  0  0  0  0  0  0  0
   12.4950   13.4661    2.5620 C   0  0  0  0  0  0  0  0  0  0  0  0
   13.9540   12.1114    3.5089 C   0  0  0  0  0  0  0  0  0  0  0  0
   15.7072   11.1777    4.5390 C   0  0  0  0  0  0  0  0  0  0  0  0
   15.8778   12.5459    4.5820 C   0  0  0  0  0  0  0  0  0  0  0  0
   14.7563   13.1600    3.9425 C   0  0  0  0  0  0  0  0  0  0  0  0
   14.3210   14.4737    3.6316 C   0  0  0  0  0  0  0  0  0  0  0  0
   14.1304   10.0263    3.6839 H   0  0  0  0  0  0  0  0  0  0  0  0
 19 22  1  0  0  0
  1  8  1  0  0  0
 20 18  2  0  0  0
 21 19  1  0  0  0
 23 24  1  0  0  0
 24 21  2  0  0  0
 25 15  1  0  0  0
 25 17  2  0  0  0
  2 15  1  0  0  0
  2  3  1  0  0  0
  3  1  1  0  0  0
  4  1  1  0  0  0
  4  5  1  0  0  0
  5  6  1  0  0  0
  6  7  1  0  0  0
  6  2  1  0  0  0
  8 10  1  0  0  0
 11 14  1  0  0  0
 12 14  1  0  0  0
 13 10  1  0  0  0
 16 15  1  0  0  0
 20 17  1  0  0  0
 21 18  1  0  0  0
 22 23  2  0  0  0
 24 25  1  0  0  0
  8  9  2  0  0  0
 10 11  2  0  0  0
 12 13  2  0  0  0
 19 26  1  0  0  0
M  END
> <minimizedAffinity>
-7.80526

$$$$
CHEMBL1630796


 26 29  0  0  0  0  0  0  0  0999 V2000
   18.2249   11.2207    4.6062 N   0  0  0  0  0  0  0  0  0  0  0  0
   15.9127   11.6154    3.6719 C   0  0  0  0  0  0  0  0  0  0  0  0
   17.4384   11.8327    3.5423 C   0  0  0  0  0  0  0  0  0  0  0  0
   17.9571    9.7937    4.7729 C   0  0  0  0  0  0  0  0  0  0  0  0
   16.4912    9.5298    5.1093 C   0  0  0  0  0  0  0  0  0  0  0  0
   15.4995   10.1948    4.1337 C   0  0  0  0  0  0  0  0  0  0  0  0
   15.3257    9.2793    2.9077 C   0  0  0  0  0  0  0  0  0  0  0  0
   19.0900   11.8373    5.5180 C   0  0  0  0  0  0  0  0  0  0  0  0
   19.5789   11.1690    6.4378 O   0  0  0  0  0  0  0  0  0  0  0  0
   19.4623   13.2660    5.4539 C   0  0  0  0  0  0  0  0  0  0  0  0
   18.6672   14.3974    5.4630 C   0  0  0  0  0  0  0  0  0  0  0  0
   21.0194   15.0337    5.1739 C   0  0  0  0  0  0  0  0  0  0  0  0
   20.8375   13.6721    5.2355 C   0  0  0  0  0  0  0  0  0  0  0  0
   19.5493   15.8680    5.3745 S   0  0  0  0  0  0  0  0  0  0  0  0
   15.2408   12.7150    4.4061 N   0  0  0  0  0  0  0  0  0  0  0  0
   15.2926   12.6874    5.8574 C   0  0  0  0  0  0  0  0  0  0  0  0
   14.5324   14.8976    3.9072 N   0  0  0  0  0  0  0  0  0  0  0  0
   12.5793   15.4885    2.6218 N   0  0  0  0  0  0  0  0  0  0  0  0
   11.3973   13.5955    1.7816 N   0  0  0  0  0  0  0  0  0  0  0  0
   13.6745   15.7655    3.3393 C   0  0  0  0  0  0  0  0  0  0  0  0
   12.4168   14.1663    2.4905 C   0  0  0  0  0  0  0  0  0  0  0  0
   11.5231   12.2330    1.8045 C   0  0  0  0  0  0  0  0  0  0  0  0
   12.6430   11.9333    2.5521 C   0  0  0  0  0  0  0  0  0  0  0  0
   13.2176   13.1582    3.0136 C   0  0  0  0  0  0  0  0  0  0  0  0
   14.3413   13.5621    3.7792 C   0  0  0  0  0  0  0  0  0  0  0  0
   10.6835   14.1275    1.3057 H   0  0  0  0  0  0  0  0  0  0  0  0
 19 22  1  0  0  0
  1  8  1  0  0  0
 20 18  2  0  0  0
 21 19  1  0  0  0
 23 24  1  0  0  0
 24 21  2  0  0  0
 25 15  1  0  0  0
 25 17  2  0  0  0
  2 15  1  0  0  0
  2  3  1  0  0  0
  3  1  1  0  0  0
  4  1  1  0  0  0
  4  5  1  0  0  0
  5  6  1  0  0  0
  6  7  1  0  0  0
  6  2  1  0  0  0
  8 10  1  0  0  0
 11 14  1  0  0  0
 12 14  1  0  0  0
 13 10  1  0  0  0
 16 15  1  0  0  0
 20 17  1  0  0  0
 21 18  1  0  0  0
 22 23  2  0  0  0
 24 25  1  0  0  0
  8  9  2  0  0  0
 10 11  2  0  0  0
 12 13  2  0  0  0
 19 26  1  0  0  0
M  END
> <minimizedAffinity>
-7.71390

$$$$
CHEMBL1630796


 26 29  0  0  0  0  0  0  0  0999 V2000
   14.6796   15.5785    4.3362 N   0  0  0  0  0  0  0  0  0  0  0  0
   15.2990   13.1758    3.8695 C   0  0  0  0  0  0  0  0  0  0  0  0
   15.0542   14.2924    4.9111 C   0  0  0  0  0  0  0  0  0  0  0  0
   13.5262   15.4964    3.4426 C   0  0  0  0  0  0  0  0  0  0  0  0
   13.7872   14.5552    2.2688 C   0  0  0  0  0  0  0  0  0  0  0  0
   14.2938   13.1611    2.6899 C   0  0  0  0  0  0  0  0  0  0  0  0
   13.0804   12.2846    3.0515 C   0  0  0  0  0  0  0  0  0  0  0  0
   15.3344   16.8106    4.4518 C   0  0  0  0  0  0  0  0  0  0  0  0
   14.9348   17.7748    3.7865 O   0  0  0  0  0  0  0  0  0  0  0  0
   16.4988   17.0383    5.3327 C   0  0  0  0  0  0  0  0  0  0  0  0
   16.5879   17.0398    6.7128 C   0  0  0  0  0  0  0  0  0  0  0  0
   18.7579   17.6392    5.7366 C   0  0  0  0  0  0  0  0  0  0  0  0
   17.7817   17.4407    4.7887 C   0  0  0  0  0  0  0  0  0  0  0  0
   18.1684   17.3512    7.3073 S   0  0  0  0  0  0  0  0  0  0  0  0
   16.7213   13.0801    3.4602 N   0  0  0  0  0  0  0  0  0  0  0  0
   17.0769   13.5665    2.1385 C   0  0  0  0  0  0  0  0  0  0  0  0
   17.5766   10.9507    3.9587 N   0  0  0  0  0  0  0  0  0  0  0  0
   19.3492   10.4722    5.5221 N   0  0  0  0  0  0  0  0  0  0  0  0
   20.2756   12.4286    6.5226 N   0  0  0  0  0  0  0  0  0  0  0  0
   18.4142   10.1353    4.6259 C   0  0  0  0  0  0  0  0  0  0  0  0
   19.3944   11.7997    5.6886 C   0  0  0  0  0  0  0  0  0  0  0  0
   20.0975   13.7834    6.4482 C   0  0  0  0  0  0  0  0  0  0  0  0
   19.0744   14.0179    5.5530 C   0  0  0  0  0  0  0  0  0  0  0  0
   18.6009   12.7584    5.0701 C   0  0  0  0  0  0  0  0  0  0  0  0
   17.6242   12.2909    4.1540 C   0  0  0  0  0  0  0  0  0  0  0  0
   20.9584   11.9397    7.0828 H   0  0  0  0  0  0  0  0  0  0  0  0
 19 22  1  0  0  0
  1  8  1  0  0  0
 20 18  2  0  0  0
 21 19  1  0  0  0
 23 24  1  0  0  0
 24 21  2  0  0  0
 25 15  1  0  0  0
 25 17  2  0  0  0
  2 15  1  0  0  0
  2  3  1  0  0  0
  3  1  1  0  0  0
  4  1  1  0  0  0
  4  5  1  0  0  0
  5  6  1  0  0  0
  6  7  1  0  0  0
  6  2  1  0  0  0
  8 10  1  0  0  0
 11 14  1  0  0  0
 12 14  1  0  0  0
 13 10  1  0  0  0
 16 15  1  0  0  0
 20 17  1  0  0  0
 21 18  1  0  0  0
 22 23  2  0  0  0
 24 25  1  0  0  0
  8  9  2  0  0  0
 10 11  2  0  0  0
 12 13  2  0  0  0
 19 26  1  0  0  0
M  END
> <minimizedAffinity>
-7.69633

$$$$
CHEMBL1630796


 26 29  0  0  0  0  0  0  0  0999 V2000
   16.8086   13.1496    5.0369 N   0  0  0  0  0  0  0  0  0  0  0  0
   16.4987   15.5416    5.7832 C   0  0  0  0  0  0  0  0  0  0  0  0
   15.9923   14.0806    5.8064 C   0  0  0  0  0  0  0  0  0  0  0  0
   18.2203   13.1730    5.4142 C   0  0  0  0  0  0  0  0  0  0  0  0
   18.8349   14.5566    5.2156 C   0  0  0  0  0  0  0  0  0  0  0  0
   18.0377   15.6936    5.8857 C   0  0  0  0  0  0  0  0  0  0  0  0
   18.4542   15.7816    7.3656 C   0  0  0  0  0  0  0  0  0  0  0  0
   16.4320   12.3486    3.9521 C   0  0  0  0  0  0  0  0  0  0  0  0
   17.2975   11.7094    3.3406 O   0  0  0  0  0  0  0  0  0  0  0  0
   15.0386   12.2170    3.4778 C   0  0  0  0  0  0  0  0  0  0  0  0
   14.2186   13.1362    2.8493 C   0  0  0  0  0  0  0  0  0  0  0  0
   12.9770   11.0619    3.2701 C   0  0  0  0  0  0  0  0  0  0  0  0
   14.2637   11.0223    3.7534 C   0  0  0  0  0  0  0  0  0  0  0  0
   12.6565   12.5311    2.4723 S   0  0  0  0  0  0  0  0  0  0  0  0
   15.8773   16.3430    4.7009 N   0  0  0  0  0  0  0  0  0  0  0  0
   16.1552   15.9542    3.3293 C   0  0  0  0  0  0  0  0  0  0  0  0
   13.9648   17.6620    5.0426 N   0  0  0  0  0  0  0  0  0  0  0  0
   13.9401   20.0472    5.3978 N   0  0  0  0  0  0  0  0  0  0  0  0
   16.1199   21.0123    5.4587 N   0  0  0  0  0  0  0  0  0  0  0  0
   13.3643   18.8472    5.2583 C   0  0  0  0  0  0  0  0  0  0  0  0
   15.2730   19.9486    5.3213 C   0  0  0  0  0  0  0  0  0  0  0  0
   17.4172   20.5866    5.3659 C   0  0  0  0  0  0  0  0  0  0  0  0
   17.3915   19.2233    5.1564 C   0  0  0  0  0  0  0  0  0  0  0  0
   16.0266   18.8008    5.1077 C   0  0  0  0  0  0  0  0  0  0  0  0
   15.3145   17.5844    4.9494 C   0  0  0  0  0  0  0  0  0  0  0  0
   15.8054   21.9573    5.6235 H   0  0  0  0  0  0  0  0  0  0  0  0
 19 22  1  0  0  0
  1  8  1  0  0  0
 20 18  2  0  0  0
 21 19  1  0  0  0
 23 24  1  0  0  0
 24 21  2  0  0  0
 25 15  1  0  0  0
 25 17  2  0  0  0
  2 15  1  0  0  0
  2  3  1  0  0  0
  3  1  1  0  0  0
  4  1  1  0  0  0
  4  5  1  0  0  0
  5  6  1  0  0  0
  6  7  1  0  0  0
  6  2  1  0  0  0
  8 10  1  0  0  0
 11 14  1  0  0  0
 12 14  1  0  0  0
 13 10  1  0  0  0
 16 15  1  0  0  0
 20 17  1  0  0  0
 21 18  1  0  0  0
 22 23  2  0  0  0
 24 25  1  0  0  0
  8  9  2  0  0  0
 10 11  2  0  0  0
 12 13  2  0  0  0
 19 26  1  0  0  0
M  END
> <minimizedAffinity>
-7.69073

$$$$
CHEMBL1630796


 26 29  0  0  0  0  0  0  0  0999 V2000
   16.8046   15.9350    5.1668 N   0  0  0  0  0  0  0  0  0  0  0  0
   15.3184   14.1130    4.2469 C   0  0  0  0  0  0  0  0  0  0  0  0
   15.9268   14.8150    5.4833 C   0  0  0  0  0  0  0  0  0  0  0  0
   16.1745   16.9368    4.3094 C   0  0  0  0  0  0  0  0  0  0  0  0
   15.7326   16.3404    2.9750 C   0  0  0  0  0  0  0  0  0  0  0  0
   14.8669   15.0723    3.1164 C   0  0  0  0  0  0  0  0  0  0  0  0
   13.4049   15.4972    3.3478 C   0  0  0  0  0  0  0  0  0  0  0  0
   18.1573   16.1018    5.4869 C   0  0  0  0  0  0  0  0  0  0  0  0
   18.7758   17.0684    5.0232 O   0  0  0  0  0  0  0  0  0  0  0  0
   18.9115   15.1768    6.3583 C   0  0  0  0  0  0  0  0  0  0  0  0
   19.5371   13.9799    6.0608 C   0  0  0  0  0  0  0  0  0  0  0  0
   19.6997   14.4301    8.4675 C   0  0  0  0  0  0  0  0  0  0  0  0
   18.9847   15.3903    7.7910 C   0  0  0  0  0  0  0  0  0  0  0  0
   20.3044   13.2426    7.4084 S   0  0  0  0  0  0  0  0  0  0  0  0
   16.1359   12.9658    3.7832 N   0  0  0  0  0  0  0  0  0  0  0  0
   17.3361   13.2581    3.0191 C   0  0  0  0  0  0  0  0  0  0  0  0
   16.4062   10.7048    4.3569 N   0  0  0  0  0  0  0  0  0  0  0  0
   14.8468    8.9298    3.8738 N   0  0  0  0  0  0  0  0  0  0  0  0
   12.8670    9.6876    2.7818 N   0  0  0  0  0  0  0  0  0  0  0  0
   15.9851    9.4264    4.3723 C   0  0  0  0  0  0  0  0  0  0  0  0
   14.0966    9.9008    3.3386 C   0  0  0  0  0  0  0  0  0  0  0  0
   12.3390   10.8760    2.3555 C   0  0  0  0  0  0  0  0  0  0  0  0
   13.2589   11.8637    2.6410 C   0  0  0  0  0  0  0  0  0  0  0  0
   14.3975   11.2549    3.2548 C   0  0  0  0  0  0  0  0  0  0  0  0
   15.6415   11.6716    3.7939 C   0  0  0  0  0  0  0  0  0  0  0  0
   12.4305    8.7790    2.7259 H   0  0  0  0  0  0  0  0  0  0  0  0
 19 22  1  0  0  0
  1  8  1  0  0  0
 20 18  2  0  0  0
 21 19  1  0  0  0
 23 24  1  0  0  0
 24 21  2  0  0  0
 25 15  1  0  0  0
 25 17  2  0  0  0
  2 15  1  0  0  0
  2  3  1  0  0  0
  3  1  1  0  0  0
  4  1  1  0  0  0
  4  5  1  0  0  0
  5  6  1  0  0  0
  6  7  1  0  0  0
  6  2  1  0  0  0
  8 10  1  0  0  0
 11 14  1  0  0  0
 12 14  1  0  0  0
 13 10  1  0  0  0
 16 15  1  0  0  0
 20 17  1  0  0  0
 21 18  1  0  0  0
 22 23  2  0  0  0
 24 25  1  0  0  0
  8  9  2  0  0  0
 10 11  2  0  0  0
 12 13  2  0  0  0
 19 26  1  0  0  0
M  END
> <minimizedAffinity>
-7.66705

$$$$
CHEMBL3693610


 29 33  0  0  0  0  0  0  0  0999 V2000
   14.7109   17.3590    3.1281 O   0  0  0  0  0  0  0  0  0  0  0  0
   15.4607   17.2711    4.0995 C   0  0  0  0  0  0  0  0  0  0  0  0
   15.6360   19.6884    4.2298 C   0  0  0  0  0  0  0  0  0  0  0  0
   16.2491   20.6720    5.2052 C   0  0  0  0  0  0  0  0  0  0  0  0
   17.5487   19.9892    5.5944 C   0  0  0  0  0  0  0  0  0  0  0  0
   17.1918   18.4825    5.6562 C   0  0  0  0  0  0  0  0  0  0  0  0
   16.8172   18.0640    7.0887 C   0  0  0  0  0  0  0  0  0  0  0  0
   17.6339   16.8112    7.4146 C   0  0  0  0  0  0  0  0  0  0  0  0
   18.4357   17.6424    5.2943 C   0  0  0  0  0  0  0  0  0  0  0  0
   16.0600   18.3753    4.6899 N   0  0  0  0  0  0  0  0  0  0  0  0
   18.4341   16.5433    6.2442 N   0  0  0  0  0  0  0  0  0  0  0  0
   19.2702   15.4704    6.0569 C   0  0  0  0  0  0  0  0  0  0  0  0
   20.5815   14.2284    4.5571 C   0  0  0  0  0  0  0  0  0  0  0  0
   20.3900   13.4326    6.6073 C   0  0  0  0  0  0  0  0  0  0  0  0
   19.8778   13.0238    8.7465 C   0  0  0  0  0  0  0  0  0  0  0  0
   19.2860   14.2193    8.3958 C   0  0  0  0  0  0  0  0  0  0  0  0
   19.5863   14.4864    7.0245 C   0  0  0  0  0  0  0  0  0  0  0  0
   19.8017   15.2957    4.8124 N   0  0  0  0  0  0  0  0  0  0  0  0
   20.9292   13.2474    5.3968 N   0  0  0  0  0  0  0  0  0  0  0  0
   20.5455   12.5583    7.6465 N   0  0  0  0  0  0  0  0  0  0  0  0
   21.0714   11.6989    7.5776 H   0  0  0  0  0  0  0  0  0  0  0  0
   15.6528   15.9240    4.6547 C   0  0  0  0  0  0  0  0  0  0  0  0
   14.9663   15.5719    5.8211 C   0  0  0  0  0  0  0  0  0  0  0  0
   15.0894   14.2821    6.3355 C   0  0  0  0  0  0  0  0  0  0  0  0
   15.8656   13.3381    5.6606 C   0  0  0  0  0  0  0  0  0  0  0  0
   16.5005   13.6730    4.4561 C   0  0  0  0  0  0  0  0  0  0  0  0
   16.3835   14.9687    3.9425 C   0  0  0  0  0  0  0  0  0  0  0  0
   17.2588   12.6788    3.7528 C   0  0  0  0  0  0  0  0  0  0  0  0
   17.8604   11.8530    3.2034 N   0  0  0  0  0  0  0  0  0  0  0  0
  2 10  1  0  0  0
  2 22  1  0  0  0
  3 10  1  0  0  0
  3  4  1  0  0  0
  4  5  1  0  0  0
  5  6  1  0  0  0
  6  7  1  0  0  0
  6 10  1  0  0  0
  7  8  1  0  0  0
  8 11  1  0  0  0
  9 11  1  0  0  0
  9  6  1  0  0  0
 13 18  2  0  0  0
 14 19  2  0  0  0
 14 20  1  0  0  0
 16 17  1  0  0  0
 17 12  2  0  0  0
 23 24  2  0  0  0
 25 26  2  0  0  0
 26 28  1  0  0  0
 27 22  2  0  0  0
 11 12  1  0  0  0
 20 15  1  0  0  0
  2  1  2  0  0  0
 12 18  1  0  0  0
 13 19  1  0  0  0
 15 16  2  0  0  0
 17 14  1  0  0  0
 22 23  1  0  0  0
 24 25  1  0  0  0
 26 27  1  0  0  0
 28 29  3  0  0  0
 20 21  1  0  0  0
M  END
> <minimizedAffinity>
-6.71788

$$$$
CHEMBL3693610


 29 33  0  0  0  0  0  0  0  0999 V2000
   16.4395    5.9129    3.7830 O   0  0  0  0  0  0  0  0  0  0  0  0
   17.1381    6.4317    4.6528 C   0  0  0  0  0  0  0  0  0  0  0  0
   16.1967    8.6138    4.1596 C   0  0  0  0  0  0  0  0  0  0  0  0
   16.2874    9.9911    4.7838 C   0  0  0  0  0  0  0  0  0  0  0  0
   17.7515   10.0829    5.1772 C   0  0  0  0  0  0  0  0  0  0  0  0
   18.1161    8.6532    5.6508 C   0  0  0  0  0  0  0  0  0  0  0  0
   17.9581    8.5214    7.1757 C   0  0  0  0  0  0  0  0  0  0  0  0
   19.2508    7.8960    7.7050 C   0  0  0  0  0  0  0  0  0  0  0  0
   19.6092    8.3808    5.3670 C   0  0  0  0  0  0  0  0  0  0  0  0
   17.1656    7.8011    4.8783 N   0  0  0  0  0  0  0  0  0  0  0  0
   20.0970    7.6983    6.5531 N   0  0  0  0  0  0  0  0  0  0  0  0
   21.3306    7.0953    6.5420 C   0  0  0  0  0  0  0  0  0  0  0  0
   23.1815    6.3650    7.7876 C   0  0  0  0  0  0  0  0  0  0  0  0
   23.3273    6.1901    5.5918 C   0  0  0  0  0  0  0  0  0  0  0  0
   23.0181    6.2459    3.3766 C   0  0  0  0  0  0  0  0  0  0  0  0
   21.8680    6.7208    3.9715 C   0  0  0  0  0  0  0  0  0  0  0  0
   22.0555    6.7112    5.3882 C   0  0  0  0  0  0  0  0  0  0  0  0
   21.9464    6.8989    7.7435 N   0  0  0  0  0  0  0  0  0  0  0  0
   23.9455    5.9797    6.7597 N   0  0  0  0  0  0  0  0  0  0  0  0
   23.8961    5.9276    4.3769 N   0  0  0  0  0  0  0  0  0  0  0  0
   24.8319    5.5641    4.2667 H   0  0  0  0  0  0  0  0  0  0  0  0
   17.9148    5.5141    5.4981 C   0  0  0  0  0  0  0  0  0  0  0  0
   17.4365    5.2075    6.7760 C   0  0  0  0  0  0  0  0  0  0  0  0
   18.1266    4.2969    7.5746 C   0  0  0  0  0  0  0  0  0  0  0  0
   19.2691    3.6666    7.0782 C   0  0  0  0  0  0  0  0  0  0  0  0
   19.7106    3.9253    5.7727 C   0  0  0  0  0  0  0  0  0  0  0  0
   19.0231    4.8438    4.9728 C   0  0  0  0  0  0  0  0  0  0  0  0
   20.8612    3.2366    5.2628 C   0  0  0  0  0  0  0  0  0  0  0  0
   21.8091    2.7048    4.8573 N   0  0  0  0  0  0  0  0  0  0  0  0
  2 10  1  0  0  0
  2 22  1  0  0  0
  3 10  1  0  0  0
  3  4  1  0  0  0
  4  5  1  0  0  0
  5  6  1  0  0  0
  6  7  1  0  0  0
  6 10  1  0  0  0
  7  8  1  0  0  0
  8 11  1  0  0  0
  9 11  1  0  0  0
  9  6  1  0  0  0
 13 18  2  0  0  0
 14 19  2  0  0  0
 14 20  1  0  0  0
 16 17  1  0  0  0
 17 12  2  0  0  0
 23 24  2  0  0  0
 25 26  2  0  0  0
 26 28  1  0  0  0
 27 22  2  0  0  0
 11 12  1  0  0  0
 20 15  1  0  0  0
  2  1  2  0  0  0
 12 18  1  0  0  0
 13 19  1  0  0  0
 15 16  2  0  0  0
 17 14  1  0  0  0
 22 23  1  0  0  0
 24 25  1  0  0  0
 26 27  1  0  0  0
 28 29  3  0  0  0
 20 21  1  0  0  0
M  END
> <minimizedAffinity>
-6.34744

$$$$
CHEMBL3693610


 29 33  0  0  0  0  0  0  0  0999 V2000
   16.0290    6.4006    4.1021 O   0  0  0  0  0  0  0  0  0  0  0  0
   16.9645    6.8442    4.7667 C   0  0  0  0  0  0  0  0  0  0  0  0
   16.1848    9.1159    4.4162 C   0  0  0  0  0  0  0  0  0  0  0  0
   16.5721   10.4807    4.9473 C   0  0  0  0  0  0  0  0  0  0  0  0
   18.0884   10.4037    4.9899 C   0  0  0  0  0  0  0  0  0  0  0  0
   18.3906    8.9471    5.4238 C   0  0  0  0  0  0  0  0  0  0  0  0
   18.5781    8.8545    6.9482 C   0  0  0  0  0  0  0  0  0  0  0  0
   19.8801    8.0875    7.1910 C   0  0  0  0  0  0  0  0  0  0  0  0
   19.7364    8.4964    4.8158 C   0  0  0  0  0  0  0  0  0  0  0  0
   17.1970    8.2036    4.9249 N   0  0  0  0  0  0  0  0  0  0  0  0
   20.4072    7.7763    5.8844 N   0  0  0  0  0  0  0  0  0  0  0  0
   21.5288    7.0316    5.6144 C   0  0  0  0  0  0  0  0  0  0  0  0
   23.0192    6.2269    3.9889 C   0  0  0  0  0  0  0  0  0  0  0  0
   23.3114    5.5024    6.0536 C   0  0  0  0  0  0  0  0  0  0  0  0
   23.1833    5.0411    8.2391 C   0  0  0  0  0  0  0  0  0  0  0  0
   22.1958    5.9585    7.9467 C   0  0  0  0  0  0  0  0  0  0  0  0
   22.2499    6.2497    6.5487 C   0  0  0  0  0  0  0  0  0  0  0  0
   21.9593    6.9878    4.3204 N   0  0  0  0  0  0  0  0  0  0  0  0
   23.7562    5.4526    4.7927 N   0  0  0  0  0  0  0  0  0  0  0  0
   23.8528    4.7741    7.0759 N   0  0  0  0  0  0  0  0  0  0  0  0
   24.6245    4.1338    6.9561 H   0  0  0  0  0  0  0  0  0  0  0  0
   17.8087    5.8522    5.4470 C   0  0  0  0  0  0  0  0  0  0  0  0
   17.5310    5.5317    6.7797 C   0  0  0  0  0  0  0  0  0  0  0  0
   18.2828    4.5536    7.4288 C   0  0  0  0  0  0  0  0  0  0  0  0
   19.2822    3.8718    6.7319 C   0  0  0  0  0  0  0  0  0  0  0  0
   19.5159    4.1476    5.3772 C   0  0  0  0  0  0  0  0  0  0  0  0
   18.7670    5.1336    4.7266 C   0  0  0  0  0  0  0  0  0  0  0  0
   20.5171    3.4076    4.6644 C   0  0  0  0  0  0  0  0  0  0  0  0
   21.3184    2.7834    4.1039 N   0  0  0  0  0  0  0  0  0  0  0  0
  2 10  1  0  0  0
  2 22  1  0  0  0
  3 10  1  0  0  0
  3  4  1  0  0  0
  4  5  1  0  0  0
  5  6  1  0  0  0
  6  7  1  0  0  0
  6 10  1  0  0  0
  7  8  1  0  0  0
  8 11  1  0  0  0
  9 11  1  0  0  0
  9  6  1  0  0  0
 13 18  2  0  0  0
 14 19  2  0  0  0
 14 20  1  0  0  0
 16 17  1  0  0  0
 17 12  2  0  0  0
 23 24  2  0  0  0
 25 26  2  0  0  0
 26 28  1  0  0  0
 27 22  2  0  0  0
 11 12  1  0  0  0
 20 15  1  0  0  0
  2  1  2  0  0  0
 12 18  1  0  0  0
 13 19  1  0  0  0
 15 16  2  0  0  0
 17 14  1  0  0  0
 22 23  1  0  0  0
 24 25  1  0  0  0
 26 27  1  0  0  0
 28 29  3  0  0  0
 20 21  1  0  0  0
M  END
> <minimizedAffinity>
-6.20504

$$$$
CHEMBL3693610


 29 33  0  0  0  0  0  0  0  0999 V2000
   17.4111   16.7509    7.8099 O   0  0  0  0  0  0  0  0  0  0  0  0
   17.2899   16.1227    6.7590 C   0  0  0  0  0  0  0  0  0  0  0  0
   15.1888   17.2431    6.2884 C   0  0  0  0  0  0  0  0  0  0  0  0
   14.2343   17.2908    5.1130 C   0  0  0  0  0  0  0  0  0  0  0  0
   14.2275   15.8507    4.6305 C   0  0  0  0  0  0  0  0  0  0  0  0
   15.6889   15.3714    4.8199 C   0  0  0  0  0  0  0  0  0  0  0  0
   16.5002   15.5539    3.5253 C   0  0  0  0  0  0  0  0  0  0  0  0
   17.2054   14.2237    3.2504 C   0  0  0  0  0  0  0  0  0  0  0  0
   15.7015   13.8536    5.1026 C   0  0  0  0  0  0  0  0  0  0  0  0
   16.1682   16.2231    5.9474 N   0  0  0  0  0  0  0  0  0  0  0  0
   16.8073   13.3356    4.3157 N   0  0  0  0  0  0  0  0  0  0  0  0
   17.2546   12.0532    4.5175 C   0  0  0  0  0  0  0  0  0  0  0  0
   19.0804   10.6477    4.9672 C   0  0  0  0  0  0  0  0  0  0  0  0
   17.1472    9.6665    4.5511 C   0  0  0  0  0  0  0  0  0  0  0  0
   15.0288    9.1527    4.0469 C   0  0  0  0  0  0  0  0  0  0  0  0
   15.1286   10.5279    4.0824 C   0  0  0  0  0  0  0  0  0  0  0  0
   16.4818   10.8746    4.3835 C   0  0  0  0  0  0  0  0  0  0  0  0
   18.5754   11.8865    4.8163 N   0  0  0  0  0  0  0  0  0  0  0  0
   18.4372    9.4807    4.8538 N   0  0  0  0  0  0  0  0  0  0  0  0
   16.2663    8.6440    4.3342 N   0  0  0  0  0  0  0  0  0  0  0  0
   16.5240    7.6684    4.3754 H   0  0  0  0  0  0  0  0  0  0  0  0
   18.4327   15.2879    6.3633 C   0  0  0  0  0  0  0  0  0  0  0  0
   19.1776   15.6550    5.2380 C   0  0  0  0  0  0  0  0  0  0  0  0
   20.2989   14.9104    4.8755 C   0  0  0  0  0  0  0  0  0  0  0  0
   20.6946   13.8264    5.6615 C   0  0  0  0  0  0  0  0  0  0  0  0
   19.9855   13.4991    6.8261 C   0  0  0  0  0  0  0  0  0  0  0  0
   18.8562   14.2411    7.1871 C   0  0  0  0  0  0  0  0  0  0  0  0
   20.4309   12.4093    7.6457 C   0  0  0  0  0  0  0  0  0  0  0  0
   20.8155   11.5240    8.2893 N   0  0  0  0  0  0  0  0  0  0  0  0
  2 10  1  0  0  0
  2 22  1  0  0  0
  3 10  1  0  0  0
  3  4  1  0  0  0
  4  5  1  0  0  0
  5  6  1  0  0  0
  6  7  1  0  0  0
  6 10  1  0  0  0
  7  8  1  0  0  0
  8 11  1  0  0  0
  9 11  1  0  0  0
  9  6  1  0  0  0
 13 18  2  0  0  0
 14 19  2  0  0  0
 14 20  1  0  0  0
 16 17  1  0  0  0
 17 12  2  0  0  0
 23 24  2  0  0  0
 25 26  2  0  0  0
 26 28  1  0  0  0
 27 22  2  0  0  0
 11 12  1  0  0  0
 20 15  1  0  0  0
  2  1  2  0  0  0
 12 18  1  0  0  0
 13 19  1  0  0  0
 15 16  2  0  0  0
 17 14  1  0  0  0
 22 23  1  0  0  0
 24 25  1  0  0  0
 26 27  1  0  0  0
 28 29  3  0  0  0
 20 21  1  0  0  0
M  END
> <minimizedAffinity>
-6.17607

$$$$
CHEMBL3693610


 29 33  0  0  0  0  0  0  0  0999 V2000
   14.6854   15.0470    6.6347 O   0  0  0  0  0  0  0  0  0  0  0  0
   15.6268   14.6829    5.9312 C   0  0  0  0  0  0  0  0  0  0  0  0
   14.4405   12.6525    5.3302 C   0  0  0  0  0  0  0  0  0  0  0  0
   14.6761   11.5167    4.3558 C   0  0  0  0  0  0  0  0  0  0  0  0
   16.1725   11.2841    4.4708 C   0  0  0  0  0  0  0  0  0  0  0  0
   16.7729   12.7018    4.6470 C   0  0  0  0  0  0  0  0  0  0  0  0
   17.2063   13.2884    3.2922 C   0  0  0  0  0  0  0  0  0  0  0  0
   18.6381   13.8004    3.4661 C   0  0  0  0  0  0  0  0  0  0  0  0
   18.0641   12.6142    5.4892 C   0  0  0  0  0  0  0  0  0  0  0  0
   15.6549   13.4521    5.2899 N   0  0  0  0  0  0  0  0  0  0  0  0
   19.0008   13.5092    4.8319 N   0  0  0  0  0  0  0  0  0  0  0  0
   20.1739   13.8565    5.4553 C   0  0  0  0  0  0  0  0  0  0  0  0
   22.4065   14.5424    5.2187 C   0  0  0  0  0  0  0  0  0  0  0  0
   21.7102   14.1079    7.2680 C   0  0  0  0  0  0  0  0  0  0  0  0
   20.5717   13.5310    9.1056 C   0  0  0  0  0  0  0  0  0  0  0  0
   19.7082   13.4429    8.0337 C   0  0  0  0  0  0  0  0  0  0  0  0
   20.4252   13.7888    6.8470 C   0  0  0  0  0  0  0  0  0  0  0  0
   21.2156   14.2465    4.6651 N   0  0  0  0  0  0  0  0  0  0  0  0
   22.7421   14.5018    6.5127 N   0  0  0  0  0  0  0  0  0  0  0  0
   21.7859   13.9368    8.6221 N   0  0  0  0  0  0  0  0  0  0  0  0
   22.6303   14.0846    9.1560 H   0  0  0  0  0  0  0  0  0  0  0  0
   16.7171   15.6513    5.7492 C   0  0  0  0  0  0  0  0  0  0  0  0
   16.7740   16.3862    4.5607 C   0  0  0  0  0  0  0  0  0  0  0  0
   17.7663   17.3500    4.3883 C   0  0  0  0  0  0  0  0  0  0  0  0
   18.6728   17.6034    5.4194 C   0  0  0  0  0  0  0  0  0  0  0  0
   18.5743   16.9123    6.6355 C   0  0  0  0  0  0  0  0  0  0  0  0
   17.5835   15.9402    6.8073 C   0  0  0  0  0  0  0  0  0  0  0  0
   19.4866   17.2155    7.7003 C   0  0  0  0  0  0  0  0  0  0  0  0
   20.2475   17.4474    8.5447 N   0  0  0  0  0  0  0  0  0  0  0  0
  2 10  1  0  0  0
  2 22  1  0  0  0
  3 10  1  0  0  0
  3  4  1  0  0  0
  4  5  1  0  0  0
  5  6  1  0  0  0
  6  7  1  0  0  0
  6 10  1  0  0  0
  7  8  1  0  0  0
  8 11  1  0  0  0
  9 11  1  0  0  0
  9  6  1  0  0  0
 13 18  2  0  0  0
 14 19  2  0  0  0
 14 20  1  0  0  0
 16 17  1  0  0  0
 17 12  2  0  0  0
 23 24  2  0  0  0
 25 26  2  0  0  0
 26 28  1  0  0  0
 27 22  2  0  0  0
 11 12  1  0  0  0
 20 15  1  0  0  0
  2  1  2  0  0  0
 12 18  1  0  0  0
 13 19  1  0  0  0
 15 16  2  0  0  0
 17 14  1  0  0  0
 22 23  1  0  0  0
 24 25  1  0  0  0
 26 27  1  0  0  0
 28 29  3  0  0  0
 20 21  1  0  0  0
M  END
> <minimizedAffinity>
-6.11858

$$$$
CHEMBL3693610


 29 33  0  0  0  0  0  0  0  0999 V2000
   23.7181    5.1884    2.0396 O   0  0  0  0  0  0  0  0  0  0  0  0
   23.1601    4.4452    2.8457 C   0  0  0  0  0  0  0  0  0  0  0  0
   22.5347    2.9207    1.0636 C   0  0  0  0  0  0  0  0  0  0  0  0
   21.8987    1.5475    0.9957 C   0  0  0  0  0  0  0  0  0  0  0  0
   20.8351    1.6190    2.0776 C   0  0  0  0  0  0  0  0  0  0  0  0
   21.4869    2.4559    3.2073 C   0  0  0  0  0  0  0  0  0  0  0  0
   22.1539    1.5447    4.2525 C   0  0  0  0  0  0  0  0  0  0  0  0
   21.6604    2.0066    5.6257 C   0  0  0  0  0  0  0  0  0  0  0  0
   20.3920    3.2286    3.9742 C   0  0  0  0  0  0  0  0  0  0  0  0
   22.4540    3.3134    2.4618 N   0  0  0  0  0  0  0  0  0  0  0  0
   20.7571    3.1034    5.3747 N   0  0  0  0  0  0  0  0  0  0  0  0
   20.1298    3.8754    6.3213 C   0  0  0  0  0  0  0  0  0  0  0  0
   19.5549    4.1478    8.5810 C   0  0  0  0  0  0  0  0  0  0  0  0
   18.7381    5.6270    7.1604 C   0  0  0  0  0  0  0  0  0  0  0  0
   18.1395    6.8291    5.3709 C   0  0  0  0  0  0  0  0  0  0  0  0
   18.9833    5.8273    4.9386 C   0  0  0  0  0  0  0  0  0  0  0  0
   19.3599    5.0361    6.0675 C   0  0  0  0  0  0  0  0  0  0  0  0
   20.1999    3.4611    7.6193 N   0  0  0  0  0  0  0  0  0  0  0  0
   18.8015    5.2439    8.4408 N   0  0  0  0  0  0  0  0  0  0  0  0
   18.0007    6.6927    6.7254 N   0  0  0  0  0  0  0  0  0  0  0  0
   17.4379    7.2673    7.3362 H   0  0  0  0  0  0  0  0  0  0  0  0
   23.3253    4.7831    4.2664 C   0  0  0  0  0  0  0  0  0  0  0  0
   24.2834    4.0932    5.0160 C   0  0  0  0  0  0  0  0  0  0  0  0
   24.4968    4.4342    6.3507 C   0  0  0  0  0  0  0  0  0  0  0  0
   23.7807    5.4892    6.9193 C   0  0  0  0  0  0  0  0  0  0  0  0
   22.8678    6.2230    6.1485 C   0  0  0  0  0  0  0  0  0  0  0  0
   22.6476    5.8775    4.8112 C   0  0  0  0  0  0  0  0  0  0  0  0
   22.1722    7.3316    6.7361 C   0  0  0  0  0  0  0  0  0  0  0  0
   21.5848    8.2213    7.1933 N   0  0  0  0  0  0  0  0  0  0  0  0
  2 10  1  0  0  0
  2 22  1  0  0  0
  3 10  1  0  0  0
  3  4  1  0  0  0
  4  5  1  0  0  0
  5  6  1  0  0  0
  6  7  1  0  0  0
  6 10  1  0  0  0
  7  8  1  0  0  0
  8 11  1  0  0  0
  9 11  1  0  0  0
  9  6  1  0  0  0
 13 18  2  0  0  0
 14 19  2  0  0  0
 14 20  1  0  0  0
 16 17  1  0  0  0
 17 12  2  0  0  0
 23 24  2  0  0  0
 25 26  2  0  0  0
 26 28  1  0  0  0
 27 22  2  0  0  0
 11 12  1  0  0  0
 20 15  1  0  0  0
  2  1  2  0  0  0
 12 18  1  0  0  0
 13 19  1  0  0  0
 15 16  2  0  0  0
 17 14  1  0  0  0
 22 23  1  0  0  0
 24 25  1  0  0  0
 26 27  1  0  0  0
 28 29  3  0  0  0
 20 21  1  0  0  0
M  END
> <minimizedAffinity>
-5.91667

$$$$
CHEMBL3693610


 29 33  0  0  0  0  0  0  0  0999 V2000
   20.3420    6.8578    9.2444 O   0  0  0  0  0  0  0  0  0  0  0  0
   20.4577    6.9023    8.0204 C   0  0  0  0  0  0  0  0  0  0  0  0
   18.3076    8.0106    7.8205 C   0  0  0  0  0  0  0  0  0  0  0  0
   17.5295    8.6544    6.6913 C   0  0  0  0  0  0  0  0  0  0  0  0
   17.7910    7.7138    5.5278 C   0  0  0  0  0  0  0  0  0  0  0  0
   19.2639    7.2692    5.7121 C   0  0  0  0  0  0  0  0  0  0  0  0
   20.2148    8.1631    4.8970 C   0  0  0  0  0  0  0  0  0  0  0  0
   21.1300    7.2299    4.1006 C   0  0  0  0  0  0  0  0  0  0  0  0
   19.4483    5.8459    5.1427 C   0  0  0  0  0  0  0  0  0  0  0  0
   19.4575    7.3843    7.1871 N   0  0  0  0  0  0  0  0  0  0  0  0
   20.7146    5.8884    4.4320 N   0  0  0  0  0  0  0  0  0  0  0  0
   21.3036    4.7240    4.0047 C   0  0  0  0  0  0  0  0  0  0  0  0
   21.1973    2.3812    3.9010 C   0  0  0  0  0  0  0  0  0  0  0  0
   23.0242    3.3313    3.1054 C   0  0  0  0  0  0  0  0  0  0  0  0
   24.6545    4.7249    2.4684 C   0  0  0  0  0  0  0  0  0  0  0  0
   23.6164    5.4908    2.9564 C   0  0  0  0  0  0  0  0  0  0  0  0
   22.5729    4.6147    3.3872 C   0  0  0  0  0  0  0  0  0  0  0  0
   20.6397    3.5568    4.2463 N   0  0  0  0  0  0  0  0  0  0  0  0
   22.3863    2.1756    3.3241 N   0  0  0  0  0  0  0  0  0  0  0  0
   24.2779    3.4130    2.5665 N   0  0  0  0  0  0  0  0  0  0  0  0
   24.8240    2.6060    2.3014 H   0  0  0  0  0  0  0  0  0  0  0  0
   21.7497    6.4674    7.4716 C   0  0  0  0  0  0  0  0  0  0  0  0
   22.7150    7.4345    7.1736 C   0  0  0  0  0  0  0  0  0  0  0  0
   23.9677    7.0424    6.7044 C   0  0  0  0  0  0  0  0  0  0  0  0
   24.2644    5.6845    6.5731 C   0  0  0  0  0  0  0  0  0  0  0  0
   23.3189    4.7141    6.9344 C   0  0  0  0  0  0  0  0  0  0  0  0
   22.0592    5.1063    7.3987 C   0  0  0  0  0  0  0  0  0  0  0  0
   23.6553    3.3231    6.8343 C   0  0  0  0  0  0  0  0  0  0  0  0
   23.9339    2.2025    6.7230 N   0  0  0  0  0  0  0  0  0  0  0  0
  2 10  1  0  0  0
  2 22  1  0  0  0
  3 10  1  0  0  0
  3  4  1  0  0  0
  4  5  1  0  0  0
  5  6  1  0  0  0
  6  7  1  0  0  0
  6 10  1  0  0  0
  7  8  1  0  0  0
  8 11  1  0  0  0
  9 11  1  0  0  0
  9  6  1  0  0  0
 13 18  2  0  0  0
 14 19  2  0  0  0
 14 20  1  0  0  0
 16 17  1  0  0  0
 17 12  2  0  0  0
 23 24  2  0  0  0
 25 26  2  0  0  0
 26 28  1  0  0  0
 27 22  2  0  0  0
 11 12  1  0  0  0
 20 15  1  0  0  0
  2  1  2  0  0  0
 12 18  1  0  0  0
 13 19  1  0  0  0
 15 16  2  0  0  0
 17 14  1  0  0  0
 22 23  1  0  0  0
 24 25  1  0  0  0
 26 27  1  0  0  0
 28 29  3  0  0  0
 20 21  1  0  0  0
M  END
> <minimizedAffinity>
-5.85460

$$$$
CHEMBL3693610


 29 33  0  0  0  0  0  0  0  0999 V2000
   13.9102   17.1471    5.8572 O   0  0  0  0  0  0  0  0  0  0  0  0
   14.5746   16.4575    5.0847 C   0  0  0  0  0  0  0  0  0  0  0  0
   12.5776   15.8618    3.8403 C   0  0  0  0  0  0  0  0  0  0  0  0
   12.2946   15.1172    2.5518 C   0  0  0  0  0  0  0  0  0  0  0  0
   13.2916   13.9726    2.6024 C   0  0  0  0  0  0  0  0  0  0  0  0
   14.5615   14.5923    3.2384 C   0  0  0  0  0  0  0  0  0  0  0  0
   15.5370   15.0827    2.1542 C   0  0  0  0  0  0  0  0  0  0  0  0
   16.9137   14.5119    2.5026 C   0  0  0  0  0  0  0  0  0  0  0  0
   15.3294   13.5054    4.0213 C   0  0  0  0  0  0  0  0  0  0  0  0
   14.0027   15.6923    4.0775 N   0  0  0  0  0  0  0  0  0  0  0  0
   16.7284   13.7331    3.7030 N   0  0  0  0  0  0  0  0  0  0  0  0
   17.7102   13.0942    4.4195 C   0  0  0  0  0  0  0  0  0  0  0  0
   19.8814   13.1852    5.3075 C   0  0  0  0  0  0  0  0  0  0  0  0
   18.7985   11.2732    5.5188 C   0  0  0  0  0  0  0  0  0  0  0  0
   17.3414    9.5765    5.4577 C   0  0  0  0  0  0  0  0  0  0  0  0
   16.7369   10.6682    4.8704 C   0  0  0  0  0  0  0  0  0  0  0  0
   17.6622   11.7572    4.8825 C   0  0  0  0  0  0  0  0  0  0  0  0
   18.8633   13.7827    4.6603 N   0  0  0  0  0  0  0  0  0  0  0  0
   19.9343   11.9329    5.7740 N   0  0  0  0  0  0  0  0  0  0  0  0
   18.5956    9.9617    5.8466 N   0  0  0  0  0  0  0  0  0  0  0  0
   19.2920    9.3860    6.2977 H   0  0  0  0  0  0  0  0  0  0  0  0
   16.0342   16.5254    5.2414 C   0  0  0  0  0  0  0  0  0  0  0  0
   16.7807   17.2378    4.2974 C   0  0  0  0  0  0  0  0  0  0  0  0
   18.1601   17.3629    4.4553 C   0  0  0  0  0  0  0  0  0  0  0  0
   18.7821   16.8101    5.5764 C   0  0  0  0  0  0  0  0  0  0  0  0
   18.0239   16.1528    6.5557 C   0  0  0  0  0  0  0  0  0  0  0  0
   16.6408   16.0205    6.3950 C   0  0  0  0  0  0  0  0  0  0  0  0
   18.6728   15.6284    7.7227 C   0  0  0  0  0  0  0  0  0  0  0  0
   19.1755   15.2178    8.6842 N   0  0  0  0  0  0  0  0  0  0  0  0
  2 10  1  0  0  0
  2 22  1  0  0  0
  3 10  1  0  0  0
  3  4  1  0  0  0
  4  5  1  0  0  0
  5  6  1  0  0  0
  6  7  1  0  0  0
  6 10  1  0  0  0
  7  8  1  0  0  0
  8 11  1  0  0  0
  9 11  1  0  0  0
  9  6  1  0  0  0
 13 18  2  0  0  0
 14 19  2  0  0  0
 14 20  1  0  0  0
 16 17  1  0  0  0
 17 12  2  0  0  0
 23 24  2  0  0  0
 25 26  2  0  0  0
 26 28  1  0  0  0
 27 22  2  0  0  0
 11 12  1  0  0  0
 20 15  1  0  0  0
  2  1  2  0  0  0
 12 18  1  0  0  0
 13 19  1  0  0  0
 15 16  2  0  0  0
 17 14  1  0  0  0
 22 23  1  0  0  0
 24 25  1  0  0  0
 26 27  1  0  0  0
 28 29  3  0  0  0
 20 21  1  0  0  0
M  END
> <minimizedAffinity>
-5.84749

$$$$
CHEMBL3693610


 29 33  0  0  0  0  0  0  0  0999 V2000
   19.7034    3.1792    4.4574 O   0  0  0  0  0  0  0  0  0  0  0  0
   20.8372    3.5603    4.1692 C   0  0  0  0  0  0  0  0  0  0  0  0
   20.8949    2.0634    2.2594 C   0  0  0  0  0  0  0  0  0  0  0  0
   21.8416    1.8354    1.0990 C   0  0  0  0  0  0  0  0  0  0  0  0
   23.2066    1.9736    1.7504 C   0  0  0  0  0  0  0  0  0  0  0  0
   23.0255    3.1047    2.7940 C   0  0  0  0  0  0  0  0  0  0  0  0
   23.4298    4.4674    2.2047 C   0  0  0  0  0  0  0  0  0  0  0  0
   24.3814    5.1222    3.2087 C   0  0  0  0  0  0  0  0  0  0  0  0
   23.9841    2.8694    3.9813 C   0  0  0  0  0  0  0  0  0  0  0  0
   21.5751    3.0089    3.1307 N   0  0  0  0  0  0  0  0  0  0  0  0
   24.5206    4.1826    4.2949 N   0  0  0  0  0  0  0  0  0  0  0  0
   25.2257    4.3787    5.4567 C   0  0  0  0  0  0  0  0  0  0  0  0
   26.0691    3.4391    7.4358 C   0  0  0  0  0  0  0  0  0  0  0  0
   26.3268    5.6164    7.1785 C   0  0  0  0  0  0  0  0  0  0  0  0
   26.3168    7.7449    6.4893 C   0  0  0  0  0  0  0  0  0  0  0  0
   25.7274    6.9830    5.5023 C   0  0  0  0  0  0  0  0  0  0  0  0
   25.7069    5.6212    5.9351 C   0  0  0  0  0  0  0  0  0  0  0  0
   25.4345    3.2939    6.2575 N   0  0  0  0  0  0  0  0  0  0  0  0
   26.5507    4.5645    7.9745 N   0  0  0  0  0  0  0  0  0  0  0  0
   26.6756    6.8978    7.5024 N   0  0  0  0  0  0  0  0  0  0  0  0
   27.1203    7.1511    8.3731 H   0  0  0  0  0  0  0  0  0  0  0  0
   21.3646    4.6869    4.9517 C   0  0  0  0  0  0  0  0  0  0  0  0
   21.2517    5.9801    4.4314 C   0  0  0  0  0  0  0  0  0  0  0  0
   21.6944    7.0697    5.1797 C   0  0  0  0  0  0  0  0  0  0  0  0
   22.2111    6.8665    6.4606 C   0  0  0  0  0  0  0  0  0  0  0  0
   22.2633    5.5764    7.0075 C   0  0  0  0  0  0  0  0  0  0  0  0
   21.8258    4.4815    6.2551 C   0  0  0  0  0  0  0  0  0  0  0  0
   22.7569    5.3902    8.3416 C   0  0  0  0  0  0  0  0  0  0  0  0
   23.1598    5.2090    9.4142 N   0  0  0  0  0  0  0  0  0  0  0  0
  2 10  1  0  0  0
  2 22  1  0  0  0
  3 10  1  0  0  0
  3  4  1  0  0  0
  4  5  1  0  0  0
  5  6  1  0  0  0
  6  7  1  0  0  0
  6 10  1  0  0  0
  7  8  1  0  0  0
  8 11  1  0  0  0
  9 11  1  0  0  0
  9  6  1  0  0  0
 13 18  2  0  0  0
 14 19  2  0  0  0
 14 20  1  0  0  0
 16 17  1  0  0  0
 17 12  2  0  0  0
 23 24  2  0  0  0
 25 26  2  0  0  0
 26 28  1  0  0  0
 27 22  2  0  0  0
 11 12  1  0  0  0
 20 15  1  0  0  0
  2  1  2  0  0  0
 12 18  1  0  0  0
 13 19  1  0  0  0
 15 16  2  0  0  0
 17 14  1  0  0  0
 22 23  1  0  0  0
 24 25  1  0  0  0
 26 27  1  0  0  0
 28 29  3  0  0  0
 20 21  1  0  0  0
M  END
> <minimizedAffinity>
-5.72600

$$$$
CHEMBL3693611


 29 33  0  0  0  0  0  0  0  0999 V2000
   18.8720   19.6917    6.3001 O   0  0  0  0  0  0  0  0  0  0  0  0
   17.9747   18.8868    6.0283 C   0  0  0  0  0  0  0  0  0  0  0  0
   16.7449   20.7091    5.0620 C   0  0  0  0  0  0  0  0  0  0  0  0
   15.5473   20.8324    4.1512 C   0  0  0  0  0  0  0  0  0  0  0  0
   14.5568   19.8688    4.7760 C   0  0  0  0  0  0  0  0  0  0  0  0
   15.4191   18.7014    5.3362 C   0  0  0  0  0  0  0  0  0  0  0  0
   14.8171   18.2471    6.6749 C   0  0  0  0  0  0  0  0  0  0  0  0
   15.0380   16.7442    6.7483 C   0  0  0  0  0  0  0  0  0  0  0  0
   15.3167   17.4438    4.4443 C   0  0  0  0  0  0  0  0  0  0  0  0
   16.7762   19.3125    5.4714 N   0  0  0  0  0  0  0  0  0  0  0  0
   15.2991   16.3320    5.3880 N   0  0  0  0  0  0  0  0  0  0  0  0
   15.4770   15.0365    4.9744 C   0  0  0  0  0  0  0  0  0  0  0  0
   16.6318   13.0139    5.2325 C   0  0  0  0  0  0  0  0  0  0  0  0
   14.9807   13.0348    3.7657 C   0  0  0  0  0  0  0  0  0  0  0  0
   13.2250   13.5345    2.4707 C   0  0  0  0  0  0  0  0  0  0  0  0
   13.5711   14.6746    3.1645 C   0  0  0  0  0  0  0  0  0  0  0  0
   14.6844   14.3693    4.0080 C   0  0  0  0  0  0  0  0  0  0  0  0
   16.4535   14.3042    5.5791 N   0  0  0  0  0  0  0  0  0  0  0  0
   15.9476   12.3012    4.3284 N   0  0  0  0  0  0  0  0  0  0  0  0
   14.0933   12.5462    2.8473 N   0  0  0  0  0  0  0  0  0  0  0  0
   14.0932   11.5888    2.5265 H   0  0  0  0  0  0  0  0  0  0  0  0
   18.3112   17.4840    6.3281 C   0  0  0  0  0  0  0  0  0  0  0  0
   18.1572   17.0590    7.6573 C   0  0  0  0  0  0  0  0  0  0  0  0
   18.7298   15.8629    8.0905 C   0  0  0  0  0  0  0  0  0  0  0  0
   19.4582   15.0812    7.1952 C   0  0  0  0  0  0  0  0  0  0  0  0
   19.6131   15.4926    5.8651 C   0  0  0  0  0  0  0  0  0  0  0  0
   19.0615   16.7094    5.4377 C   0  0  0  0  0  0  0  0  0  0  0  0
   20.3769   14.6786    4.9629 C   0  0  0  0  0  0  0  0  0  0  0  0
   21.3012   14.4464    4.3010 N   0  0  0  0  0  0  0  0  0  0  0  0
  2 10  1  0  0  0
  2 22  1  0  0  0
  3 10  1  0  0  0
  3  4  1  0  0  0
  4  5  1  0  0  0
  5  6  1  0  0  0
  6  7  1  0  0  0
  6 10  1  0  0  0
  7  8  1  0  0  0
  8 11  1  0  0  0
  9 11  1  0  0  0
  9  6  1  0  0  0
 13 18  2  0  0  0
 14 19  2  0  0  0
 14 20  1  0  0  0
 16 17  1  0  0  0
 17 12  2  0  0  0
 23 24  2  0  0  0
 25 26  2  0  0  0
 25 28  1  0  0  0
 27 22  2  0  0  0
 11 12  1  0  0  0
 20 15  1  0  0  0
  2  1  2  0  0  0
 12 18  1  0  0  0
 13 19  1  0  0  0
 15 16  2  0  0  0
 17 14  1  0  0  0
 22 23  1  0  0  0
 24 25  1  0  0  0
 26 27  1  0  0  0
 28 29  3  0  0  0
 20 21  1  0  0  0
M  END
> <minimizedAffinity>
-8.72437

$$$$
CHEMBL3693611


 29 33  0  0  0  0  0  0  0  0999 V2000
   19.4971   11.2396    5.3266 O   0  0  0  0  0  0  0  0  0  0  0  0
   18.5677   12.0440    5.2006 C   0  0  0  0  0  0  0  0  0  0  0  0
   17.1411   10.1870    4.6683 C   0  0  0  0  0  0  0  0  0  0  0  0
   15.6498    9.9701    4.5794 C   0  0  0  0  0  0  0  0  0  0  0  0
   15.1892   11.1696    3.7737 C   0  0  0  0  0  0  0  0  0  0  0  0
   16.1251   12.3355    4.2040 C   0  0  0  0  0  0  0  0  0  0  0  0
   16.4468   13.1869    2.9659 C   0  0  0  0  0  0  0  0  0  0  0  0
   16.5553   14.6220    3.4576 C   0  0  0  0  0  0  0  0  0  0  0  0
   15.4023   13.3224    5.1480 C   0  0  0  0  0  0  0  0  0  0  0  0
   17.3163   11.6289    4.7654 N   0  0  0  0  0  0  0  0  0  0  0  0
   15.8899   14.6351    4.7404 N   0  0  0  0  0  0  0  0  0  0  0  0
   15.6792   15.7500    5.5109 C   0  0  0  0  0  0  0  0  0  0  0  0
   14.4595   16.7677    7.2336 C   0  0  0  0  0  0  0  0  0  0  0  0
   16.1332   17.9296    6.3811 C   0  0  0  0  0  0  0  0  0  0  0  0
   17.9234   18.6647    5.2568 C   0  0  0  0  0  0  0  0  0  0  0  0
   17.6012   17.4186    4.7622 C   0  0  0  0  0  0  0  0  0  0  0  0
   16.4661   16.9277    5.4796 C   0  0  0  0  0  0  0  0  0  0  0  0
   14.6715   15.7091    6.4265 N   0  0  0  0  0  0  0  0  0  0  0  0
   15.1357   17.9229    7.2726 N   0  0  0  0  0  0  0  0  0  0  0  0
   17.0196   18.9611    6.2405 N   0  0  0  0  0  0  0  0  0  0  0  0
   16.9956   19.7979    6.8051 H   0  0  0  0  0  0  0  0  0  0  0  0
   18.9138   13.4285    5.5673 C   0  0  0  0  0  0  0  0  0  0  0  0
   19.8014   14.1118    4.7209 C   0  0  0  0  0  0  0  0  0  0  0  0
   20.4153   15.2920    5.1409 C   0  0  0  0  0  0  0  0  0  0  0  0
   20.1426   15.7991    6.4104 C   0  0  0  0  0  0  0  0  0  0  0  0
   19.2539   15.1288    7.2608 C   0  0  0  0  0  0  0  0  0  0  0  0
   18.6593   13.9270    6.8488 C   0  0  0  0  0  0  0  0  0  0  0  0
   18.9963   15.6620    8.5683 C   0  0  0  0  0  0  0  0  0  0  0  0
   19.0561   15.7228    9.7255 N   0  0  0  0  0  0  0  0  0  0  0  0
  2 10  1  0  0  0
  2 22  1  0  0  0
  3 10  1  0  0  0
  3  4  1  0  0  0
  4  5  1  0  0  0
  5  6  1  0  0  0
  6  7  1  0  0  0
  6 10  1  0  0  0
  7  8  1  0  0  0
  8 11  1  0  0  0
  9 11  1  0  0  0
  9  6  1  0  0  0
 13 18  2  0  0  0
 14 19  2  0  0  0
 14 20  1  0  0  0
 16 17  1  0  0  0
 17 12  2  0  0  0
 23 24  2  0  0  0
 25 26  2  0  0  0
 25 28  1  0  0  0
 27 22  2  0  0  0
 11 12  1  0  0  0
 20 15  1  0  0  0
  2  1  2  0  0  0
 12 18  1  0  0  0
 13 19  1  0  0  0
 15 16  2  0  0  0
 17 14  1  0  0  0
 22 23  1  0  0  0
 24 25  1  0  0  0
 26 27  1  0  0  0
 28 29  3  0  0  0
 20 21  1  0  0  0
M  END
> <minimizedAffinity>
-8.41751

$$$$
CHEMBL3693611


 29 33  0  0  0  0  0  0  0  0999 V2000
   17.7997   11.2498    5.0441 O   0  0  0  0  0  0  0  0  0  0  0  0
   17.2514   12.3326    4.8120 C   0  0  0  0  0  0  0  0  0  0  0  0
   15.2608   11.1115    4.2523 C   0  0  0  0  0  0  0  0  0  0  0  0
   13.8054   11.4623    4.0580 C   0  0  0  0  0  0  0  0  0  0  0  0
   13.8772   12.6881    3.1680 C   0  0  0  0  0  0  0  0  0  0  0  0
   15.1589   13.4464    3.6182 C   0  0  0  0  0  0  0  0  0  0  0  0
   15.8461   14.0279    2.3729 C   0  0  0  0  0  0  0  0  0  0  0  0
   16.4613   15.3486    2.8088 C   0  0  0  0  0  0  0  0  0  0  0  0
   14.8115   14.6947    4.4599 C   0  0  0  0  0  0  0  0  0  0  0  0
   15.9620   12.3863    4.3000 N   0  0  0  0  0  0  0  0  0  0  0  0
   15.7805   15.6983    4.0346 N   0  0  0  0  0  0  0  0  0  0  0  0
   15.9644   16.8616    4.7375 C   0  0  0  0  0  0  0  0  0  0  0  0
   17.4607   18.4722    5.5488 C   0  0  0  0  0  0  0  0  0  0  0  0
   15.3117   18.8522    5.8888 C   0  0  0  0  0  0  0  0  0  0  0  0
   13.0743   18.8146    5.9331 C   0  0  0  0  0  0  0  0  0  0  0  0
   13.4999   17.6627    5.3062 C   0  0  0  0  0  0  0  0  0  0  0  0
   14.9287   17.6767    5.2573 C   0  0  0  0  0  0  0  0  0  0  0  0
   17.2400   17.3103    4.9022 N   0  0  0  0  0  0  0  0  0  0  0  0
   16.5564   19.3026    6.0836 N   0  0  0  0  0  0  0  0  0  0  0  0
   14.1894   19.5268    6.2824 N   0  0  0  0  0  0  0  0  0  0  0  0
   14.2115   20.4239    6.7452 H   0  0  0  0  0  0  0  0  0  0  0  0
   18.0740   13.5091    5.1439 C   0  0  0  0  0  0  0  0  0  0  0  0
   19.1856   13.7643    4.3252 C   0  0  0  0  0  0  0  0  0  0  0  0
   20.1782   14.6553    4.7340 C   0  0  0  0  0  0  0  0  0  0  0  0
   20.0637   15.3004    5.9645 C   0  0  0  0  0  0  0  0  0  0  0  0
   18.9558   15.0578    6.7866 C   0  0  0  0  0  0  0  0  0  0  0  0
   17.9728   14.1401    6.3878 C   0  0  0  0  0  0  0  0  0  0  0  0
   18.8635   15.7237    8.0548 C   0  0  0  0  0  0  0  0  0  0  0  0
   18.8971   15.8350    9.2093 N   0  0  0  0  0  0  0  0  0  0  0  0
  2 10  1  0  0  0
  2 22  1  0  0  0
  3 10  1  0  0  0
  3  4  1  0  0  0
  4  5  1  0  0  0
  5  6  1  0  0  0
  6  7  1  0  0  0
  6 10  1  0  0  0
  7  8  1  0  0  0
  8 11  1  0  0  0
  9 11  1  0  0  0
  9  6  1  0  0  0
 13 18  2  0  0  0
 14 19  2  0  0  0
 14 20  1  0  0  0
 16 17  1  0  0  0
 17 12  2  0  0  0
 23 24  2  0  0  0
 25 26  2  0  0  0
 25 28  1  0  0  0
 27 22  2  0  0  0
 11 12  1  0  0  0
 20 15  1  0  0  0
  2  1  2  0  0  0
 12 18  1  0  0  0
 13 19  1  0  0  0
 15 16  2  0  0  0
 17 14  1  0  0  0
 22 23  1  0  0  0
 24 25  1  0  0  0
 26 27  1  0  0  0
 28 29  3  0  0  0
 20 21  1  0  0  0
M  END
> <minimizedAffinity>
-8.24319

$$$$
CHEMBL3693611


 29 33  0  0  0  0  0  0  0  0999 V2000
   19.3257   16.9103    8.4951 O   0  0  0  0  0  0  0  0  0  0  0  0
   18.8428   16.1914    7.6138 C   0  0  0  0  0  0  0  0  0  0  0  0
   20.0024   14.3370    8.6056 C   0  0  0  0  0  0  0  0  0  0  0  0
   19.9225   12.8341    8.4878 C   0  0  0  0  0  0  0  0  0  0  0  0
   19.8830   12.6221    6.9866 C   0  0  0  0  0  0  0  0  0  0  0  0
   19.0822   13.8312    6.4235 C   0  0  0  0  0  0  0  0  0  0  0  0
   19.7253   14.2696    5.0986 C   0  0  0  0  0  0  0  0  0  0  0  0
   18.5840   14.7436    4.2123 C   0  0  0  0  0  0  0  0  0  0  0  0
   17.6496   13.4204    6.0156 C   0  0  0  0  0  0  0  0  0  0  0  0
   19.1981   14.8534    7.5076 N   0  0  0  0  0  0  0  0  0  0  0  0
   17.3893   14.1788    4.7973 N   0  0  0  0  0  0  0  0  0  0  0  0
   16.1261   14.2843    4.2736 C   0  0  0  0  0  0  0  0  0  0  0  0
   14.4873   15.6550    3.3110 C   0  0  0  0  0  0  0  0  0  0  0  0
   14.0206   13.5011    3.4567 C   0  0  0  0  0  0  0  0  0  0  0  0
   14.0424   11.2847    3.7668 C   0  0  0  0  0  0  0  0  0  0  0  0
   15.2286   11.7876    4.2577 C   0  0  0  0  0  0  0  0  0  0  0  0
   15.2372   13.2029    4.0552 C   0  0  0  0  0  0  0  0  0  0  0  0
   15.7052   15.5158    3.8714 N   0  0  0  0  0  0  0  0  0  0  0  0
   13.5752   14.7034    3.0745 N   0  0  0  0  0  0  0  0  0  0  0  0
   13.3183   12.3407    3.2840 N   0  0  0  0  0  0  0  0  0  0  0  0
   12.4094   12.2987    2.8464 H   0  0  0  0  0  0  0  0  0  0  0  0
   17.8746   16.8762    6.7393 C   0  0  0  0  0  0  0  0  0  0  0  0
   18.3950   17.7292    5.7531 C   0  0  0  0  0  0  0  0  0  0  0  0
   17.5678   18.6385    5.0932 C   0  0  0  0  0  0  0  0  0  0  0  0
   16.2124   18.6983    5.4134 C   0  0  0  0  0  0  0  0  0  0  0  0
   15.6814   17.8477    6.3916 C   0  0  0  0  0  0  0  0  0  0  0  0
   16.5193   16.9539    7.0748 C   0  0  0  0  0  0  0  0  0  0  0  0
   14.2855   17.9339    6.7142 C   0  0  0  0  0  0  0  0  0  0  0  0
   13.8529   17.6002    7.7378 N   0  0  0  0  0  0  0  0  0  0  0  0
  2 10  1  0  0  0
  2 22  1  0  0  0
  3 10  1  0  0  0
  3  4  1  0  0  0
  4  5  1  0  0  0
  5  6  1  0  0  0
  6  7  1  0  0  0
  6 10  1  0  0  0
  7  8  1  0  0  0
  8 11  1  0  0  0
  9 11  1  0  0  0
  9  6  1  0  0  0
 13 18  2  0  0  0
 14 19  2  0  0  0
 14 20  1  0  0  0
 16 17  1  0  0  0
 17 12  2  0  0  0
 23 24  2  0  0  0
 25 26  2  0  0  0
 25 28  1  0  0  0
 27 22  2  0  0  0
 11 12  1  0  0  0
 20 15  1  0  0  0
  2  1  2  0  0  0
 12 18  1  0  0  0
 13 19  1  0  0  0
 15 16  2  0  0  0
 17 14  1  0  0  0
 22 23  1  0  0  0
 24 25  1  0  0  0
 26 27  1  0  0  0
 28 29  3  0  0  0
 20 21  1  0  0  0
M  END
> <minimizedAffinity>
-7.71091

$$$$
CHEMBL3693611


 29 33  0  0  0  0  0  0  0  0999 V2000
   20.0543   17.7203    8.3978 O   0  0  0  0  0  0  0  0  0  0  0  0
   19.6149   16.8176    7.6775 C   0  0  0  0  0  0  0  0  0  0  0  0
   21.1971   15.3351    8.7100 C   0  0  0  0  0  0  0  0  0  0  0  0
   21.3799   13.8381    8.7768 C   0  0  0  0  0  0  0  0  0  0  0  0
   21.2116   13.4199    7.3288 C   0  0  0  0  0  0  0  0  0  0  0  0
   20.1456   14.3904    6.7438 C   0  0  0  0  0  0  0  0  0  0  0  0
   20.5452   14.7451    5.3031 C   0  0  0  0  0  0  0  0  0  0  0  0
   19.2444   14.8969    4.5298 C   0  0  0  0  0  0  0  0  0  0  0  0
   18.7754   13.6948    6.5818 C   0  0  0  0  0  0  0  0  0  0  0  0
   20.1940   15.5557    7.6782 N   0  0  0  0  0  0  0  0  0  0  0  0
   18.2461   14.2260    5.3309 N   0  0  0  0  0  0  0  0  0  0  0  0
   16.9342   14.0471    4.9732 C   0  0  0  0  0  0  0  0  0  0  0  0
   14.9386   12.8590    5.2852 C   0  0  0  0  0  0  0  0  0  0  0  0
   14.8716   14.5617    3.8801 C   0  0  0  0  0  0  0  0  0  0  0  0
   15.2899   16.3687    2.6275 C   0  0  0  0  0  0  0  0  0  0  0  0
   16.4656   16.0120    3.2532 C   0  0  0  0  0  0  0  0  0  0  0  0
   16.2130   14.8655    4.0692 C   0  0  0  0  0  0  0  0  0  0  0  0
   16.2422   13.0406    5.5762 N   0  0  0  0  0  0  0  0  0  0  0  0
   14.1761   13.5663    4.4415 N   0  0  0  0  0  0  0  0  0  0  0  0
   14.3301   15.4753    3.0189 N   0  0  0  0  0  0  0  0  0  0  0  0
   13.3585   15.4752    2.7442 H   0  0  0  0  0  0  0  0  0  0  0  0
   18.4461   17.2058    6.8685 C   0  0  0  0  0  0  0  0  0  0  0  0
   18.6644   18.1216    5.8271 C   0  0  0  0  0  0  0  0  0  0  0  0
   17.5910   18.7705    5.2164 C   0  0  0  0  0  0  0  0  0  0  0  0
   16.2902   18.5047    5.6414 C   0  0  0  0  0  0  0  0  0  0  0  0
   16.0605   17.5882    6.6755 C   0  0  0  0  0  0  0  0  0  0  0  0
   17.1420   16.9579    7.3085 C   0  0  0  0  0  0  0  0  0  0  0  0
   14.7141   17.3380    7.1057 C   0  0  0  0  0  0  0  0  0  0  0  0
   13.8230   17.3972    7.8464 N   0  0  0  0  0  0  0  0  0  0  0  0
  2 10  1  0  0  0
  2 22  1  0  0  0
  3 10  1  0  0  0
  3  4  1  0  0  0
  4  5  1  0  0  0
  5  6  1  0  0  0
  6  7  1  0  0  0
  6 10  1  0  0  0
  7  8  1  0  0  0
  8 11  1  0  0  0
  9 11  1  0  0  0
  9  6  1  0  0  0
 13 18  2  0  0  0
 14 19  2  0  0  0
 14 20  1  0  0  0
 16 17  1  0  0  0
 17 12  2  0  0  0
 23 24  2  0  0  0
 25 26  2  0  0  0
 25 28  1  0  0  0
 27 22  2  0  0  0
 11 12  1  0  0  0
 20 15  1  0  0  0
  2  1  2  0  0  0
 12 18  1  0  0  0
 13 19  1  0  0  0
 15 16  2  0  0  0
 17 14  1  0  0  0
 22 23  1  0  0  0
 24 25  1  0  0  0
 26 27  1  0  0  0
 28 29  3  0  0  0
 20 21  1  0  0  0
M  END
> <minimizedAffinity>
-7.70020

$$$$
CHEMBL3693611


 29 33  0  0  0  0  0  0  0  0999 V2000
   19.7967   17.6281    8.1382 O   0  0  0  0  0  0  0  0  0  0  0  0
   19.4439   16.6513    7.4687 C   0  0  0  0  0  0  0  0  0  0  0  0
   21.1164   15.3646    8.6150 C   0  0  0  0  0  0  0  0  0  0  0  0
   21.4146   13.8936    8.7773 C   0  0  0  0  0  0  0  0  0  0  0  0
   21.3086   13.3764    7.3556 C   0  0  0  0  0  0  0  0  0  0  0  0
   20.1817   14.2218    6.6955 C   0  0  0  0  0  0  0  0  0  0  0  0
   20.5811   14.5192    5.2418 C   0  0  0  0  0  0  0  0  0  0  0  0
   19.2881   14.5200    4.4410 C   0  0  0  0  0  0  0  0  0  0  0  0
   18.8738   13.4111    6.5562 C   0  0  0  0  0  0  0  0  0  0  0  0
   20.1200   15.4418    7.5565 N   0  0  0  0  0  0  0  0  0  0  0  0
   18.3296   13.8217    5.2669 N   0  0  0  0  0  0  0  0  0  0  0  0
   17.0432   13.5178    4.9012 C   0  0  0  0  0  0  0  0  0  0  0  0
   14.9286   14.2963    4.2580 C   0  0  0  0  0  0  0  0  0  0  0  0
   15.2228   12.1073    4.2601 C   0  0  0  0  0  0  0  0  0  0  0  0
   16.0165   10.0172    4.3642 C   0  0  0  0  0  0  0  0  0  0  0  0
   17.0259   10.8684    4.7612 C   0  0  0  0  0  0  0  0  0  0  0  0
   16.5395   12.2109    4.6878 C   0  0  0  0  0  0  0  0  0  0  0  0
   16.1890   14.5515    4.6621 N   0  0  0  0  0  0  0  0  0  0  0  0
   14.3580   13.1043    4.0410 N   0  0  0  0  0  0  0  0  0  0  0  0
   14.9258   10.7872    4.0638 N   0  0  0  0  0  0  0  0  0  0  0  0
   14.0307   10.4606    3.7298 H   0  0  0  0  0  0  0  0  0  0  0  0
   18.2647   16.8957    6.6196 C   0  0  0  0  0  0  0  0  0  0  0  0
   18.4838   17.5344    5.3887 C   0  0  0  0  0  0  0  0  0  0  0  0
   17.4170   18.0735    4.6694 C   0  0  0  0  0  0  0  0  0  0  0  0
   16.1218   17.9742    5.1755 C   0  0  0  0  0  0  0  0  0  0  0  0
   15.8910   17.3336    6.3996 C   0  0  0  0  0  0  0  0  0  0  0  0
   16.9675   16.8173    7.1360 C   0  0  0  0  0  0  0  0  0  0  0  0
   14.5512   17.2528    6.9080 C   0  0  0  0  0  0  0  0  0  0  0  0
   13.8853   17.5304    7.8168 N   0  0  0  0  0  0  0  0  0  0  0  0
  2 10  1  0  0  0
  2 22  1  0  0  0
  3 10  1  0  0  0
  3  4  1  0  0  0
  4  5  1  0  0  0
  5  6  1  0  0  0
  6  7  1  0  0  0
  6 10  1  0  0  0
  7  8  1  0  0  0
  8 11  1  0  0  0
  9 11  1  0  0  0
  9  6  1  0  0  0
 13 18  2  0  0  0
 14 19  2  0  0  0
 14 20  1  0  0  0
 16 17  1  0  0  0
 17 12  2  0  0  0
 23 24  2  0  0  0
 25 26  2  0  0  0
 25 28  1  0  0  0
 27 22  2  0  0  0
 11 12  1  0  0  0
 20 15  1  0  0  0
  2  1  2  0  0  0
 12 18  1  0  0  0
 13 19  1  0  0  0
 15 16  2  0  0  0
 17 14  1  0  0  0
 22 23  1  0  0  0
 24 25  1  0  0  0
 26 27  1  0  0  0
 28 29  3  0  0  0
 20 21  1  0  0  0
M  END
> <minimizedAffinity>
-7.55884

$$$$
CHEMBL3693611


 29 33  0  0  0  0  0  0  0  0999 V2000
   20.6996    2.3487    3.6124 O   0  0  0  0  0  0  0  0  0  0  0  0
   20.9340    3.5096    3.9648 C   0  0  0  0  0  0  0  0  0  0  0  0
   22.7840    3.5141    2.4336 C   0  0  0  0  0  0  0  0  0  0  0  0
   23.6707    4.5733    1.8247 C   0  0  0  0  0  0  0  0  0  0  0  0
   24.0455    5.4204    3.0255 C   0  0  0  0  0  0  0  0  0  0  0  0
   22.7898    5.4070    3.9438 C   0  0  0  0  0  0  0  0  0  0  0  0
   23.2543    5.3358    5.4068 C   0  0  0  0  0  0  0  0  0  0  0  0
   22.2499    6.1495    6.2082 C   0  0  0  0  0  0  0  0  0  0  0  0
   22.0204    6.7449    3.8697 C   0  0  0  0  0  0  0  0  0  0  0  0
   22.0503    4.1883    3.4949 N   0  0  0  0  0  0  0  0  0  0  0  0
   21.5762    6.9826    5.2384 N   0  0  0  0  0  0  0  0  0  0  0  0
   20.6393    7.9400    5.5330 C   0  0  0  0  0  0  0  0  0  0  0  0
   19.4149    9.8035    4.8124 C   0  0  0  0  0  0  0  0  0  0  0  0
   18.9367    9.0165    6.8199 C   0  0  0  0  0  0  0  0  0  0  0  0
   18.7821    7.8389    8.7168 C   0  0  0  0  0  0  0  0  0  0  0  0
   19.7813    7.2733    7.9534 C   0  0  0  0  0  0  0  0  0  0  0  0
   19.8847    8.0062    6.7302 C   0  0  0  0  0  0  0  0  0  0  0  0
   20.3608    8.8718    4.5793 N   0  0  0  0  0  0  0  0  0  0  0  0
   18.6609    9.9563    5.9085 N   0  0  0  0  0  0  0  0  0  0  0  0
   18.2793    8.8992    8.0130 N   0  0  0  0  0  0  0  0  0  0  0  0
   17.5268    9.5094    8.2975 H   0  0  0  0  0  0  0  0  0  0  0  0
   19.9302    4.0761    4.8826 C   0  0  0  0  0  0  0  0  0  0  0  0
   19.7214    3.4031    6.0970 C   0  0  0  0  0  0  0  0  0  0  0  0
   18.5992    3.6806    6.8779 C   0  0  0  0  0  0  0  0  0  0  0  0
   17.6790    4.6366    6.4506 C   0  0  0  0  0  0  0  0  0  0  0  0
   17.8805    5.3184    5.2437 C   0  0  0  0  0  0  0  0  0  0  0  0
   18.9939    5.0183    4.4451 C   0  0  0  0  0  0  0  0  0  0  0  0
   16.9146    6.2904    4.8167 C   0  0  0  0  0  0  0  0  0  0  0  0
   16.0845    6.6544    4.0923 N   0  0  0  0  0  0  0  0  0  0  0  0
  2 10  1  0  0  0
  2 22  1  0  0  0
  3 10  1  0  0  0
  3  4  1  0  0  0
  4  5  1  0  0  0
  5  6  1  0  0  0
  6  7  1  0  0  0
  6 10  1  0  0  0
  7  8  1  0  0  0
  8 11  1  0  0  0
  9 11  1  0  0  0
  9  6  1  0  0  0
 13 18  2  0  0  0
 14 19  2  0  0  0
 14 20  1  0  0  0
 16 17  1  0  0  0
 17 12  2  0  0  0
 23 24  2  0  0  0
 25 26  2  0  0  0
 25 28  1  0  0  0
 27 22  2  0  0  0
 11 12  1  0  0  0
 20 15  1  0  0  0
  2  1  2  0  0  0
 12 18  1  0  0  0
 13 19  1  0  0  0
 15 16  2  0  0  0
 17 14  1  0  0  0
 22 23  1  0  0  0
 24 25  1  0  0  0
 26 27  1  0  0  0
 28 29  3  0  0  0
 20 21  1  0  0  0
M  END
> <minimizedAffinity>
-7.52551

$$$$
CHEMBL3693611


 29 33  0  0  0  0  0  0  0  0999 V2000
   18.6462   11.9337    4.4585 O   0  0  0  0  0  0  0  0  0  0  0  0
   18.4352   13.1006    4.8057 C   0  0  0  0  0  0  0  0  0  0  0  0
   20.7885   13.3119    5.2354 C   0  0  0  0  0  0  0  0  0  0  0  0
   21.7379   14.4622    5.4684 C   0  0  0  0  0  0  0  0  0  0  0  0
   20.9917   15.3058    6.4840 C   0  0  0  0  0  0  0  0  0  0  0  0
   19.4878   15.1554    6.1150 C   0  0  0  0  0  0  0  0  0  0  0  0
   18.6700   15.0855    7.4140 C   0  0  0  0  0  0  0  0  0  0  0  0
   17.3514   15.7841    7.1204 C   0  0  0  0  0  0  0  0  0  0  0  0
   18.9485   16.4211    5.4118 C   0  0  0  0  0  0  0  0  0  0  0  0
   19.4547   13.8887    5.3227 N   0  0  0  0  0  0  0  0  0  0  0  0
   17.5984   16.5805    5.9400 N   0  0  0  0  0  0  0  0  0  0  0  0
   16.6997   17.4423    5.3649 C   0  0  0  0  0  0  0  0  0  0  0  0
   14.5180   17.8056    4.5909 C   0  0  0  0  0  0  0  0  0  0  0  0
   15.8913   19.5345    4.5384 C   0  0  0  0  0  0  0  0  0  0  0  0
   17.6039   20.9616    4.7378 C   0  0  0  0  0  0  0  0  0  0  0  0
   18.0359   19.7262    5.1719 C   0  0  0  0  0  0  0  0  0  0  0  0
   16.9486   18.8041    5.0638 C   0  0  0  0  0  0  0  0  0  0  0  0
   15.4439   16.9778    5.1147 N   0  0  0  0  0  0  0  0  0  0  0  0
   14.6578   19.0963    4.2623 N   0  0  0  0  0  0  0  0  0  0  0  0
   16.2971   20.8272    4.3548 N   0  0  0  0  0  0  0  0  0  0  0  0
   15.6939   21.5564    4.0026 H   0  0  0  0  0  0  0  0  0  0  0  0
   17.0472   13.5501    4.5997 C   0  0  0  0  0  0  0  0  0  0  0  0
   16.0892   13.1155    5.5294 C   0  0  0  0  0  0  0  0  0  0  0  0
   14.7270   13.2325    5.2518 C   0  0  0  0  0  0  0  0  0  0  0  0
   14.3135   13.7888    4.0423 C   0  0  0  0  0  0  0  0  0  0  0  0
   15.2607   14.2313    3.1100 C   0  0  0  0  0  0  0  0  0  0  0  0
   16.6301   14.0869    3.3776 C   0  0  0  0  0  0  0  0  0  0  0  0
   14.8133   14.7903    1.8660 C   0  0  0  0  0  0  0  0  0  0  0  0
   15.5695   14.9479    1.0002 N   0  0  0  0  0  0  0  0  0  0  0  0
  2 10  1  0  0  0
  2 22  1  0  0  0
  3 10  1  0  0  0
  3  4  1  0  0  0
  4  5  1  0  0  0
  5  6  1  0  0  0
  6  7  1  0  0  0
  6 10  1  0  0  0
  7  8  1  0  0  0
  8 11  1  0  0  0
  9 11  1  0  0  0
  9  6  1  0  0  0
 13 18  2  0  0  0
 14 19  2  0  0  0
 14 20  1  0  0  0
 16 17  1  0  0  0
 17 12  2  0  0  0
 23 24  2  0  0  0
 25 26  2  0  0  0
 25 28  1  0  0  0
 27 22  2  0  0  0
 11 12  1  0  0  0
 20 15  1  0  0  0
  2  1  2  0  0  0
 12 18  1  0  0  0
 13 19  1  0  0  0
 15 16  2  0  0  0
 17 14  1  0  0  0
 22 23  1  0  0  0
 24 25  1  0  0  0
 26 27  1  0  0  0
 28 29  3  0  0  0
 20 21  1  0  0  0
M  END
> <minimizedAffinity>
-7.49224

$$$$
CHEMBL3693611


 29 33  0  0  0  0  0  0  0  0999 V2000
   13.7941   16.0482    2.6834 O   0  0  0  0  0  0  0  0  0  0  0  0
   14.7395   16.1214    3.4755 C   0  0  0  0  0  0  0  0  0  0  0  0
   15.6230   14.1232    2.4787 C   0  0  0  0  0  0  0  0  0  0  0  0
   16.9541   13.4114    2.4995 C   0  0  0  0  0  0  0  0  0  0  0  0
   17.2984   13.3981    3.9765 C   0  0  0  0  0  0  0  0  0  0  0  0
   16.7375   14.7356    4.5395 C   0  0  0  0  0  0  0  0  0  0  0  0
   16.1588   14.4730    5.9385 C   0  0  0  0  0  0  0  0  0  0  0  0
   16.4303   15.7304    6.7500 C   0  0  0  0  0  0  0  0  0  0  0  0
   17.8664   15.7585    4.7974 C   0  0  0  0  0  0  0  0  0  0  0  0
   15.7043   15.1246    3.5322 N   0  0  0  0  0  0  0  0  0  0  0  0
   17.4723   16.4281    6.0317 N   0  0  0  0  0  0  0  0  0  0  0  0
   18.0855   17.5814    6.4500 C   0  0  0  0  0  0  0  0  0  0  0  0
   18.2933   19.9057    6.2370 C   0  0  0  0  0  0  0  0  0  0  0  0
   19.4716   18.9458    7.8396 C   0  0  0  0  0  0  0  0  0  0  0  0
   20.3988   17.5479    9.3212 C   0  0  0  0  0  0  0  0  0  0  0  0
   19.6138   16.7971    8.4719 C   0  0  0  0  0  0  0  0  0  0  0  0
   19.0024   17.6775    7.5258 C   0  0  0  0  0  0  0  0  0  0  0  0
   17.7464   18.7441    5.8266 N   0  0  0  0  0  0  0  0  0  0  0  0
   19.1723   20.0979    7.2288 N   0  0  0  0  0  0  0  0  0  0  0  0
   20.3020   18.8532    8.9219 N   0  0  0  0  0  0  0  0  0  0  0  0
   20.7497   19.6499    9.3512 H   0  0  0  0  0  0  0  0  0  0  0  0
   14.7409   17.3409    4.3026 C   0  0  0  0  0  0  0  0  0  0  0  0
   13.9230   17.3411    5.4436 C   0  0  0  0  0  0  0  0  0  0  0  0
   13.6278   18.5337    6.1046 C   0  0  0  0  0  0  0  0  0  0  0  0
   14.1521   19.7350    5.6301 C   0  0  0  0  0  0  0  0  0  0  0  0
   14.9743   19.7456    4.4960 C   0  0  0  0  0  0  0  0  0  0  0  0
   15.2472   18.5499    3.8152 C   0  0  0  0  0  0  0  0  0  0  0  0
   15.4941   20.9950    4.0174 C   0  0  0  0  0  0  0  0  0  0  0  0
   16.3921   21.7017    3.8161 N   0  0  0  0  0  0  0  0  0  0  0  0
  2 10  1  0  0  0
  2 22  1  0  0  0
  3 10  1  0  0  0
  3  4  1  0  0  0
  4  5  1  0  0  0
  5  6  1  0  0  0
  6  7  1  0  0  0
  6 10  1  0  0  0
  7  8  1  0  0  0
  8 11  1  0  0  0
  9 11  1  0  0  0
  9  6  1  0  0  0
 13 18  2  0  0  0
 14 19  2  0  0  0
 14 20  1  0  0  0
 16 17  1  0  0  0
 17 12  2  0  0  0
 23 24  2  0  0  0
 25 26  2  0  0  0
 25 28  1  0  0  0
 27 22  2  0  0  0
 11 12  1  0  0  0
 20 15  1  0  0  0
  2  1  2  0  0  0
 12 18  1  0  0  0
 13 19  1  0  0  0
 15 16  2  0  0  0
 17 14  1  0  0  0
 22 23  1  0  0  0
 24 25  1  0  0  0
 26 27  1  0  0  0
 28 29  3  0  0  0
 20 21  1  0  0  0
M  END
> <minimizedAffinity>
-7.44981

$$$$
CHEMBL4280010


 27 31  0  0  0  0  0  0  0  0999 V2000
   15.0470   13.8188    3.4253 C   0  0  0  0  0  0  0  0  0  0  0  0
   14.6246   15.1638    4.0442 C   0  0  0  0  0  0  0  0  0  0  0  0
   17.0379   15.0820    4.1497 C   0  0  0  0  0  0  0  0  0  0  0  0
   16.5644   13.8569    3.4093 C   0  0  0  0  0  0  0  0  0  0  0  0
   17.3052   13.4209    2.1537 C   0  0  0  0  0  0  0  0  0  0  0  0
   17.4199   12.5987    3.3982 C   0  0  0  0  0  0  0  0  0  0  0  0
   15.9501   16.9721    5.2581 C   0  0  0  0  0  0  0  0  0  0  0  0
   15.8413   15.7970    4.5449 N   0  0  0  0  0  0  0  0  0  0  0  0
   17.0239   17.5172    5.5017 O   0  0  0  0  0  0  0  0  0  0  0  0
   14.7243   17.6272    5.7396 C   0  0  0  0  0  0  0  0  0  0  0  0
   14.2216   18.7135    5.0399 C   0  0  0  0  0  0  0  0  0  0  0  0
   12.5048   18.9900    6.5522 C   0  0  0  0  0  0  0  0  0  0  0  0
   12.9555   17.9367    7.3350 C   0  0  0  0  0  0  0  0  0  0  0  0
   14.0931   17.2471    6.9235 C   0  0  0  0  0  0  0  0  0  0  0  0
   13.1101   19.3959    5.4130 N   0  0  0  0  0  0  0  0  0  0  0  0
   14.4896   12.6138    5.5402 C   0  0  0  0  0  0  0  0  0  0  0  0
   14.4822   12.6276    4.0892 N   0  0  0  0  0  0  0  0  0  0  0  0
   13.8676   11.6064    3.3732 C   0  0  0  0  0  0  0  0  0  0  0  0
   12.0962   10.9711    1.9527 C   0  0  0  0  0  0  0  0  0  0  0  0
   13.5109    9.3848    2.5352 C   0  0  0  0  0  0  0  0  0  0  0  0
   14.2836   10.2462    3.3088 C   0  0  0  0  0  0  0  0  0  0  0  0
   15.3378    9.4316    3.8338 C   0  0  0  0  0  0  0  0  0  0  0  0
   15.1686    8.1412    3.3767 C   0  0  0  0  0  0  0  0  0  0  0  0
   12.7543   11.9143    2.6481 N   0  0  0  0  0  0  0  0  0  0  0  0
   12.4091    9.6784    1.8342 N   0  0  0  0  0  0  0  0  0  0  0  0
   14.0515    8.1303    2.5891 N   0  0  0  0  0  0  0  0  0  0  0  0
   13.6611    7.3333    2.1076 H   0  0  0  0  0  0  0  0  0  0  0  0
 16 17  1  0  0  0
  1 17  1  0  0  0
  1  2  1  0  0  0
  2  8  1  0  0  0
  3  8  1  0  0  0
  3  4  1  0  0  0
  4  5  1  0  0  0
  4  1  1  0  0  0
  5  6  1  0  0  0
  6  4  1  0  0  0
  7 10  1  0  0  0
 11 15  2  0  0  0
 12 13  2  0  0  0
 14 10  2  0  0  0
 19 24  2  0  0  0
 20 25  2  0  0  0
 21 22  1  0  0  0
 21 18  2  0  0  0
 23 26  1  0  0  0
 17 18  1  0  0  0
  8  7  1  0  0  0
 26 20  1  0  0  0
  7  9  2  0  0  0
 10 11  1  0  0  0
 12 15  1  0  0  0
 13 14  1  0  0  0
 18 24  1  0  0  0
 19 25  1  0  0  0
 20 21  1  0  0  0
 22 23  2  0  0  0
 26 27  1  0  0  0
M  END
> <minimizedAffinity>
-8.60611

$$$$
CHEMBL4280010


 27 31  0  0  0  0  0  0  0  0999 V2000
   15.7690   14.2204    3.5235 C   0  0  0  0  0  0  0  0  0  0  0  0
   15.0061   13.0043    2.9671 C   0  0  0  0  0  0  0  0  0  0  0  0
   13.4333   14.8385    3.0268 C   0  0  0  0  0  0  0  0  0  0  0  0
   14.7823   15.3708    3.4395 C   0  0  0  0  0  0  0  0  0  0  0  0
   15.2479   16.7100    2.8871 C   0  0  0  0  0  0  0  0  0  0  0  0
   14.8728   16.6004    4.3311 C   0  0  0  0  0  0  0  0  0  0  0  0
   12.5421   12.6423    2.4212 C   0  0  0  0  0  0  0  0  0  0  0  0
   13.6154   13.4184    2.8048 N   0  0  0  0  0  0  0  0  0  0  0  0
   11.4357   13.1048    2.1538 O   0  0  0  0  0  0  0  0  0  0  0  0
   12.7236   11.1875    2.3026 C   0  0  0  0  0  0  0  0  0  0  0  0
   11.9945   10.4932    1.3494 C   0  0  0  0  0  0  0  0  0  0  0  0
   12.8970    8.4799    2.0150 C   0  0  0  0  0  0  0  0  0  0  0  0
   13.6381    9.0853    3.0198 C   0  0  0  0  0  0  0  0  0  0  0  0
   13.5425   10.4663    3.1708 C   0  0  0  0  0  0  0  0  0  0  0  0
   12.0768    9.1504    1.1745 N   0  0  0  0  0  0  0  0  0  0  0  0
   15.4816   14.2557    6.0038 C   0  0  0  0  0  0  0  0  0  0  0  0
   16.3515   14.0244    4.8656 N   0  0  0  0  0  0  0  0  0  0  0  0
   17.6401   13.5342    5.0455 C   0  0  0  0  0  0  0  0  0  0  0  0
   19.9134   14.0308    5.4259 C   0  0  0  0  0  0  0  0  0  0  0  0
   19.3904   11.8999    5.2192 C   0  0  0  0  0  0  0  0  0  0  0  0
   18.0381   12.1673    5.0262 C   0  0  0  0  0  0  0  0  0  0  0  0
   17.4243   10.8842    4.8604 C   0  0  0  0  0  0  0  0  0  0  0  0
   18.3993    9.9128    4.9514 C   0  0  0  0  0  0  0  0  0  0  0  0
   18.6410   14.4335    5.2683 N   0  0  0  0  0  0  0  0  0  0  0  0
   20.3788   12.7792    5.4230 N   0  0  0  0  0  0  0  0  0  0  0  0
   19.5898   10.5484    5.1684 N   0  0  0  0  0  0  0  0  0  0  0  0
   20.4942   10.1132    5.2785 H   0  0  0  0  0  0  0  0  0  0  0  0
 16 17  1  0  0  0
  1 17  1  0  0  0
  1  2  1  0  0  0
  2  8  1  0  0  0
  3  8  1  0  0  0
  3  4  1  0  0  0
  4  5  1  0  0  0
  4  1  1  0  0  0
  5  6  1  0  0  0
  6  4  1  0  0  0
  7 10  1  0  0  0
 11 15  2  0  0  0
 12 13  2  0  0  0
 14 10  2  0  0  0
 19 24  2  0  0  0
 20 25  2  0  0  0
 21 22  1  0  0  0
 21 18  2  0  0  0
 23 26  1  0  0  0
 17 18  1  0  0  0
  8  7  1  0  0  0
 26 20  1  0  0  0
  7  9  2  0  0  0
 10 11  1  0  0  0
 12 15  1  0  0  0
 13 14  1  0  0  0
 18 24  1  0  0  0
 19 25  1  0  0  0
 20 21  1  0  0  0
 22 23  2  0  0  0
 26 27  1  0  0  0
M  END
> <minimizedAffinity>
-8.22629

$$$$
CHEMBL4280010


 27 31  0  0  0  0  0  0  0  0999 V2000
   15.6844   13.1732    3.5101 C   0  0  0  0  0  0  0  0  0  0  0  0
   16.0405   11.6857    3.6873 C   0  0  0  0  0  0  0  0  0  0  0  0
   13.7803   11.7584    2.8339 C   0  0  0  0  0  0  0  0  0  0  0  0
   14.3075   13.1705    2.8711 C   0  0  0  0  0  0  0  0  0  0  0  0
   14.0345   14.0916    1.6911 C   0  0  0  0  0  0  0  0  0  0  0  0
   13.3405   14.3388    2.9931 C   0  0  0  0  0  0  0  0  0  0  0  0
   14.6437    9.5628    3.4808 C   0  0  0  0  0  0  0  0  0  0  0  0
   14.8344   10.9243    3.3749 N   0  0  0  0  0  0  0  0  0  0  0  0
   13.6515    8.9840    3.0451 O   0  0  0  0  0  0  0  0  0  0  0  0
   15.6832    8.7480    4.1282 C   0  0  0  0  0  0  0  0  0  0  0  0
   15.6788    7.3748    3.9373 C   0  0  0  0  0  0  0  0  0  0  0  0
   17.4996    7.0997    5.3230 C   0  0  0  0  0  0  0  0  0  0  0  0
   17.5592    8.4580    5.6001 C   0  0  0  0  0  0  0  0  0  0  0  0
   16.6265    9.2972    4.9960 C   0  0  0  0  0  0  0  0  0  0  0  0
   16.5816    6.5364    4.5051 N   0  0  0  0  0  0  0  0  0  0  0  0
   15.0694   13.4877    5.9098 C   0  0  0  0  0  0  0  0  0  0  0  0
   15.7743   13.9819    4.7417 N   0  0  0  0  0  0  0  0  0  0  0  0
   16.5831   15.1097    4.8255 C   0  0  0  0  0  0  0  0  0  0  0  0
   18.7432   15.9746    5.2065 C   0  0  0  0  0  0  0  0  0  0  0  0
   17.1510   17.4424    4.7976 C   0  0  0  0  0  0  0  0  0  0  0  0
   16.1717   16.4628    4.6606 C   0  0  0  0  0  0  0  0  0  0  0  0
   14.9661   17.1789    4.3701 C   0  0  0  0  0  0  0  0  0  0  0  0
   15.2485   18.5287    4.3469 C   0  0  0  0  0  0  0  0  0  0  0  0
   17.9091   14.9276    5.0876 N   0  0  0  0  0  0  0  0  0  0  0  0
   18.4502   17.2702    5.0697 N   0  0  0  0  0  0  0  0  0  0  0  0
   16.5821   18.6714    4.6104 N   0  0  0  0  0  0  0  0  0  0  0  0
   17.0965   19.5385    4.6648 H   0  0  0  0  0  0  0  0  0  0  0  0
 16 17  1  0  0  0
  1 17  1  0  0  0
  1  2  1  0  0  0
  2  8  1  0  0  0
  3  8  1  0  0  0
  3  4  1  0  0  0
  4  5  1  0  0  0
  4  1  1  0  0  0
  5  6  1  0  0  0
  6  4  1  0  0  0
  7 10  1  0  0  0
 11 15  2  0  0  0
 12 13  2  0  0  0
 14 10  2  0  0  0
 19 24  2  0  0  0
 20 25  2  0  0  0
 21 22  1  0  0  0
 21 18  2  0  0  0
 23 26  1  0  0  0
 17 18  1  0  0  0
  8  7  1  0  0  0
 26 20  1  0  0  0
  7  9  2  0  0  0
 10 11  1  0  0  0
 12 15  1  0  0  0
 13 14  1  0  0  0
 18 24  1  0  0  0
 19 25  1  0  0  0
 20 21  1  0  0  0
 22 23  2  0  0  0
 26 27  1  0  0  0
M  END
> <minimizedAffinity>
-8.13165

$$$$
CHEMBL4280010


 27 31  0  0  0  0  0  0  0  0999 V2000
   16.1133   12.9601    3.9866 C   0  0  0  0  0  0  0  0  0  0  0  0
   16.6465   14.3489    4.3833 C   0  0  0  0  0  0  0  0  0  0  0  0
   18.1455   12.7268    5.3650 C   0  0  0  0  0  0  0  0  0  0  0  0
   17.1397   11.9803    4.5256 C   0  0  0  0  0  0  0  0  0  0  0  0
   17.6198   10.8430    3.6360 C   0  0  0  0  0  0  0  0  0  0  0  0
   16.8047   10.5323    4.8514 C   0  0  0  0  0  0  0  0  0  0  0  0
   18.5126   15.0701    5.9638 C   0  0  0  0  0  0  0  0  0  0  0  0
   17.7752   14.1251    5.2822 N   0  0  0  0  0  0  0  0  0  0  0  0
   19.5471   14.8089    6.5728 O   0  0  0  0  0  0  0  0  0  0  0  0
   18.0594   16.4694    5.9517 C   0  0  0  0  0  0  0  0  0  0  0  0
   17.1357   16.8865    6.8977 C   0  0  0  0  0  0  0  0  0  0  0  0
   17.0697   19.0113    6.0078 C   0  0  0  0  0  0  0  0  0  0  0  0
   17.9645   18.6739    5.0023 C   0  0  0  0  0  0  0  0  0  0  0  0
   18.4628   17.3740    4.9700 C   0  0  0  0  0  0  0  0  0  0  0  0
   16.6426   18.1489    6.9579 N   0  0  0  0  0  0  0  0  0  0  0  0
   14.4252   12.8797    5.8250 C   0  0  0  0  0  0  0  0  0  0  0  0
   14.7301   12.6814    4.4203 N   0  0  0  0  0  0  0  0  0  0  0  0
   13.7269   12.3496    3.5164 C   0  0  0  0  0  0  0  0  0  0  0  0
   11.8947   13.0902    2.2304 C   0  0  0  0  0  0  0  0  0  0  0  0
   12.3964   10.9488    2.0909 C   0  0  0  0  0  0  0  0  0  0  0  0
   13.4639   11.0583    2.9774 C   0  0  0  0  0  0  0  0  0  0  0  0
   14.0067    9.7366    3.0725 C   0  0  0  0  0  0  0  0  0  0  0  0
   13.2669    8.8960    2.2670 C   0  0  0  0  0  0  0  0  0  0  0  0
   12.9005   13.3449    3.0846 N   0  0  0  0  0  0  0  0  0  0  0  0
   11.5731   11.9190    1.6756 N   0  0  0  0  0  0  0  0  0  0  0  0
   12.2903    9.6497    1.6784 N   0  0  0  0  0  0  0  0  0  0  0  0
   11.5847    9.3249    1.0333 H   0  0  0  0  0  0  0  0  0  0  0  0
 16 17  1  0  0  0
  1 17  1  0  0  0
  1  2  1  0  0  0
  2  8  1  0  0  0
  3  8  1  0  0  0
  3  4  1  0  0  0
  4  5  1  0  0  0
  4  1  1  0  0  0
  5  6  1  0  0  0
  6  4  1  0  0  0
  7 10  1  0  0  0
 11 15  2  0  0  0
 12 13  2  0  0  0
 14 10  2  0  0  0
 19 24  2  0  0  0
 20 25  2  0  0  0
 21 22  1  0  0  0
 21 18  2  0  0  0
 23 26  1  0  0  0
 17 18  1  0  0  0
  8  7  1  0  0  0
 26 20  1  0  0  0
  7  9  2  0  0  0
 10 11  1  0  0  0
 12 15  1  0  0  0
 13 14  1  0  0  0
 18 24  1  0  0  0
 19 25  1  0  0  0
 20 21  1  0  0  0
 22 23  2  0  0  0
 26 27  1  0  0  0
M  END
> <minimizedAffinity>
-8.04519

$$$$
CHEMBL4280010


 27 31  0  0  0  0  0  0  0  0999 V2000
   14.7993   11.6376    4.4992 C   0  0  0  0  0  0  0  0  0  0  0  0
   15.0523   13.0572    5.0390 C   0  0  0  0  0  0  0  0  0  0  0  0
   13.4859   13.2816    3.2120 C   0  0  0  0  0  0  0  0  0  0  0  0
   13.7319   11.8107    3.4339 C   0  0  0  0  0  0  0  0  0  0  0  0
   12.5507   10.8519    3.4033 C   0  0  0  0  0  0  0  0  0  0  0  0
   13.5462   10.8285    2.2868 C   0  0  0  0  0  0  0  0  0  0  0  0
   14.3363   15.3540    4.1951 C   0  0  0  0  0  0  0  0  0  0  0  0
   14.3325   13.9756    4.1613 N   0  0  0  0  0  0  0  0  0  0  0  0
   13.5771   16.0481    3.5232 O   0  0  0  0  0  0  0  0  0  0  0  0
   15.2784   16.0402    5.0923 C   0  0  0  0  0  0  0  0  0  0  0  0
   14.8521   16.4160    6.3569 C   0  0  0  0  0  0  0  0  0  0  0  0
   16.8868   17.3854    6.8381 C   0  0  0  0  0  0  0  0  0  0  0  0
   17.3876   17.0811    5.5803 C   0  0  0  0  0  0  0  0  0  0  0  0
   16.5630   16.4017    4.6873 C   0  0  0  0  0  0  0  0  0  0  0  0
   15.6380   17.0689    7.2494 N   0  0  0  0  0  0  0  0  0  0  0  0
   17.0464   11.7317    3.4142 C   0  0  0  0  0  0  0  0  0  0  0  0
   16.0068   10.9292    4.0313 N   0  0  0  0  0  0  0  0  0  0  0  0
   16.2017    9.5722    4.2633 C   0  0  0  0  0  0  0  0  0  0  0  0
   15.5151    7.3646    3.8006 C   0  0  0  0  0  0  0  0  0  0  0  0
   17.1849    7.6014    5.2193 C   0  0  0  0  0  0  0  0  0  0  0  0
   17.1714    8.9903    5.1283 C   0  0  0  0  0  0  0  0  0  0  0  0
   18.2210    9.4310    5.9970 C   0  0  0  0  0  0  0  0  0  0  0  0
   18.8132    8.3253    6.5710 C   0  0  0  0  0  0  0  0  0  0  0  0
   15.3978    8.6890    3.6047 N   0  0  0  0  0  0  0  0  0  0  0  0
   16.3885    6.7309    4.5871 N   0  0  0  0  0  0  0  0  0  0  0  0
   18.1695    7.2206    6.0879 N   0  0  0  0  0  0  0  0  0  0  0  0
   18.3684    6.2579    6.3186 H   0  0  0  0  0  0  0  0  0  0  0  0
 16 17  1  0  0  0
  1 17  1  0  0  0
  1  2  1  0  0  0
  2  8  1  0  0  0
  3  8  1  0  0  0
  3  4  1  0  0  0
  4  5  1  0  0  0
  4  1  1  0  0  0
  5  6  1  0  0  0
  6  4  1  0  0  0
  7 10  1  0  0  0
 11 15  2  0  0  0
 12 13  2  0  0  0
 14 10  2  0  0  0
 19 24  2  0  0  0
 20 25  2  0  0  0
 21 22  1  0  0  0
 21 18  2  0  0  0
 23 26  1  0  0  0
 17 18  1  0  0  0
  8  7  1  0  0  0
 26 20  1  0  0  0
  7  9  2  0  0  0
 10 11  1  0  0  0
 12 15  1  0  0  0
 13 14  1  0  0  0
 18 24  1  0  0  0
 19 25  1  0  0  0
 20 21  1  0  0  0
 22 23  2  0  0  0
 26 27  1  0  0  0
M  END
> <minimizedAffinity>
-8.03172

$$$$
CHEMBL4280010


 27 31  0  0  0  0  0  0  0  0999 V2000
   15.3188   12.2954    4.7053 C   0  0  0  0  0  0  0  0  0  0  0  0
   15.3829   13.7552    5.1907 C   0  0  0  0  0  0  0  0  0  0  0  0
   13.6790   13.6703    3.4786 C   0  0  0  0  0  0  0  0  0  0  0  0
   14.1669   12.2638    3.7172 C   0  0  0  0  0  0  0  0  0  0  0  0
   13.1511   11.1336    3.7964 C   0  0  0  0  0  0  0  0  0  0  0  0
   14.0589   11.2249    2.6109 C   0  0  0  0  0  0  0  0  0  0  0  0
   14.2598   15.8826    4.3463 C   0  0  0  0  0  0  0  0  0  0  0  0
   14.4696   14.5198    4.3461 N   0  0  0  0  0  0  0  0  0  0  0  0
   13.3570   16.4269    3.7153 O   0  0  0  0  0  0  0  0  0  0  0  0
   15.1422   16.7373    5.1552 C   0  0  0  0  0  0  0  0  0  0  0  0
   14.7227   17.1380    6.4144 C   0  0  0  0  0  0  0  0  0  0  0  0
   16.6351   18.3822    6.7393 C   0  0  0  0  0  0  0  0  0  0  0  0
   17.1197   18.0620    5.4791 C   0  0  0  0  0  0  0  0  0  0  0  0
   16.3530   17.2289    4.6684 C   0  0  0  0  0  0  0  0  0  0  0  0
   15.4543   17.9400    7.2280 N   0  0  0  0  0  0  0  0  0  0  0  0
   17.2343   12.5361    3.1214 C   0  0  0  0  0  0  0  0  0  0  0  0
   16.5873   11.7659    4.1673 N   0  0  0  0  0  0  0  0  0  0  0  0
   17.2030   10.6407    4.7041 C   0  0  0  0  0  0  0  0  0  0  0  0
   19.0005    9.7759    5.9612 C   0  0  0  0  0  0  0  0  0  0  0  0
   17.5435    8.3139    5.1888 C   0  0  0  0  0  0  0  0  0  0  0  0
   16.7654    9.2919    4.5758 C   0  0  0  0  0  0  0  0  0  0  0  0
   15.6836    8.5794    3.9655 C   0  0  0  0  0  0  0  0  0  0  0  0
   15.8426    7.2329    4.2188 C   0  0  0  0  0  0  0  0  0  0  0  0
   18.3406   10.8214    5.4344 N   0  0  0  0  0  0  0  0  0  0  0  0
   18.6686    8.4843    5.8935 N   0  0  0  0  0  0  0  0  0  0  0  0
   16.9800    7.0890    4.9631 N   0  0  0  0  0  0  0  0  0  0  0  0
   17.3692    6.2236    5.3081 H   0  0  0  0  0  0  0  0  0  0  0  0
 16 17  1  0  0  0
  1 17  1  0  0  0
  1  2  1  0  0  0
  2  8  1  0  0  0
  3  8  1  0  0  0
  3  4  1  0  0  0
  4  5  1  0  0  0
  4  1  1  0  0  0
  5  6  1  0  0  0
  6  4  1  0  0  0
  7 10  1  0  0  0
 11 15  2  0  0  0
 12 13  2  0  0  0
 14 10  2  0  0  0
 19 24  2  0  0  0
 20 25  2  0  0  0
 21 22  1  0  0  0
 21 18  2  0  0  0
 23 26  1  0  0  0
 17 18  1  0  0  0
  8  7  1  0  0  0
 26 20  1  0  0  0
  7  9  2  0  0  0
 10 11  1  0  0  0
 12 15  1  0  0  0
 13 14  1  0  0  0
 18 24  1  0  0  0
 19 25  1  0  0  0
 20 21  1  0  0  0
 22 23  2  0  0  0
 26 27  1  0  0  0
M  END
> <minimizedAffinity>
-8.01796

$$$$
CHEMBL4280010


 27 31  0  0  0  0  0  0  0  0999 V2000
   15.9986   14.3204    4.7029 C   0  0  0  0  0  0  0  0  0  0  0  0
   17.2191   14.2958    5.6412 C   0  0  0  0  0  0  0  0  0  0  0  0
   17.0779   16.5378    4.7494 C   0  0  0  0  0  0  0  0  0  0  0  0
   15.8810   15.7659    4.2547 C   0  0  0  0  0  0  0  0  0  0  0  0
   14.5154   16.4370    4.2619 C   0  0  0  0  0  0  0  0  0  0  0  0
   15.1984   16.1731    2.9574 C   0  0  0  0  0  0  0  0  0  0  0  0
   19.0411   16.0158    6.1124 C   0  0  0  0  0  0  0  0  0  0  0  0
   17.8627   15.6016    5.5285 N   0  0  0  0  0  0  0  0  0  0  0  0
   19.4294   17.1814    6.0966 O   0  0  0  0  0  0  0  0  0  0  0  0
   19.8748   15.0253    6.8106 C   0  0  0  0  0  0  0  0  0  0  0  0
   20.8184   14.3105    6.0889 C   0  0  0  0  0  0  0  0  0  0  0  0
   21.4403   13.1039    7.9512 C   0  0  0  0  0  0  0  0  0  0  0  0
   20.4982   13.7436    8.7441 C   0  0  0  0  0  0  0  0  0  0  0  0
   19.6943   14.7184    8.1588 C   0  0  0  0  0  0  0  0  0  0  0  0
   21.6210   13.3637    6.6364 N   0  0  0  0  0  0  0  0  0  0  0  0
   17.2023   13.4156    2.7108 C   0  0  0  0  0  0  0  0  0  0  0  0
   16.0519   13.3490    3.5927 N   0  0  0  0  0  0  0  0  0  0  0  0
   15.1067   12.3392    3.4507 C   0  0  0  0  0  0  0  0  0  0  0  0
   14.6040   10.0481    3.6900 C   0  0  0  0  0  0  0  0  0  0  0  0
   13.0026   11.3304    2.8852 C   0  0  0  0  0  0  0  0  0  0  0  0
   13.7807   12.4826    2.9521 C   0  0  0  0  0  0  0  0  0  0  0  0
   12.9365   13.5316    2.4649 C   0  0  0  0  0  0  0  0  0  0  0  0
   11.7132   12.9924    2.1251 C   0  0  0  0  0  0  0  0  0  0  0  0
   15.4598   11.0757    3.8233 N   0  0  0  0  0  0  0  0  0  0  0  0
   13.3492   10.0858    3.2351 N   0  0  0  0  0  0  0  0  0  0  0  0
   11.7712   11.6519    2.3858 N   0  0  0  0  0  0  0  0  0  0  0  0
   11.0338   10.9774    2.2422 H   0  0  0  0  0  0  0  0  0  0  0  0
 16 17  1  0  0  0
  1 17  1  0  0  0
  1  2  1  0  0  0
  2  8  1  0  0  0
  3  8  1  0  0  0
  3  4  1  0  0  0
  4  5  1  0  0  0
  4  1  1  0  0  0
  5  6  1  0  0  0
  6  4  1  0  0  0
  7 10  1  0  0  0
 11 15  2  0  0  0
 12 13  2  0  0  0
 14 10  2  0  0  0
 19 24  2  0  0  0
 20 25  2  0  0  0
 21 22  1  0  0  0
 21 18  2  0  0  0
 23 26  1  0  0  0
 17 18  1  0  0  0
  8  7  1  0  0  0
 26 20  1  0  0  0
  7  9  2  0  0  0
 10 11  1  0  0  0
 12 15  1  0  0  0
 13 14  1  0  0  0
 18 24  1  0  0  0
 19 25  1  0  0  0
 20 21  1  0  0  0
 22 23  2  0  0  0
 26 27  1  0  0  0
M  END
> <minimizedAffinity>
-7.91642

$$$$
CHEMBL4280010


 27 31  0  0  0  0  0  0  0  0999 V2000
   16.0075   13.2504    3.5613 C   0  0  0  0  0  0  0  0  0  0  0  0
   16.2431   11.7356    3.7041 C   0  0  0  0  0  0  0  0  0  0  0  0
   13.9680   12.0118    2.9363 C   0  0  0  0  0  0  0  0  0  0  0  0
   14.6133   13.3740    2.9739 C   0  0  0  0  0  0  0  0  0  0  0  0
   14.3767   14.3350    1.8181 C   0  0  0  0  0  0  0  0  0  0  0  0
   13.7532   14.6168    3.1484 C   0  0  0  0  0  0  0  0  0  0  0  0
   14.6659    9.7409    3.5196 C   0  0  0  0  0  0  0  0  0  0  0  0
   14.9668   11.0833    3.4259 N   0  0  0  0  0  0  0  0  0  0  0  0
   13.6135    9.2547    3.1128 O   0  0  0  0  0  0  0  0  0  0  0  0
   15.6556    8.8309    4.1162 C   0  0  0  0  0  0  0  0  0  0  0  0
   15.5611    7.4715    3.8605 C   0  0  0  0  0  0  0  0  0  0  0  0
   17.3709    7.0139    5.2117 C   0  0  0  0  0  0  0  0  0  0  0  0
   17.5203    8.3508    5.5523 C   0  0  0  0  0  0  0  0  0  0  0  0
   16.6391    9.2761    4.9988 C   0  0  0  0  0  0  0  0  0  0  0  0
   16.4122    6.5506    4.3781 N   0  0  0  0  0  0  0  0  0  0  0  0
   15.2677   13.8039    5.8813 C   0  0  0  0  0  0  0  0  0  0  0  0
   16.2093   14.0274    4.8000 N   0  0  0  0  0  0  0  0  0  0  0  0
   17.3104   14.8576    4.9783 C   0  0  0  0  0  0  0  0  0  0  0  0
   18.1340   17.0652    5.0631 C   0  0  0  0  0  0  0  0  0  0  0  0
   19.6054   15.4515    5.3590 C   0  0  0  0  0  0  0  0  0  0  0  0
   18.6520   14.4468    5.2205 C   0  0  0  0  0  0  0  0  0  0  0  0
   19.3753   13.2216    5.3821 C   0  0  0  0  0  0  0  0  0  0  0  0
   20.7043   13.5185    5.6015 C   0  0  0  0  0  0  0  0  0  0  0  0
   17.1104   16.2056    4.9239 N   0  0  0  0  0  0  0  0  0  0  0  0
   19.4172   16.7749    5.2913 N   0  0  0  0  0  0  0  0  0  0  0  0
   20.8269   14.8798    5.5828 N   0  0  0  0  0  0  0  0  0  0  0  0
   21.6762   15.4104    5.7118 H   0  0  0  0  0  0  0  0  0  0  0  0
 16 17  1  0  0  0
  1 17  1  0  0  0
  1  2  1  0  0  0
  2  8  1  0  0  0
  3  8  1  0  0  0
  3  4  1  0  0  0
  4  5  1  0  0  0
  4  1  1  0  0  0
  5  6  1  0  0  0
  6  4  1  0  0  0
  7 10  1  0  0  0
 11 15  2  0  0  0
 12 13  2  0  0  0
 14 10  2  0  0  0
 19 24  2  0  0  0
 20 25  2  0  0  0
 21 22  1  0  0  0
 21 18  2  0  0  0
 23 26  1  0  0  0
 17 18  1  0  0  0
  8  7  1  0  0  0
 26 20  1  0  0  0
  7  9  2  0  0  0
 10 11  1  0  0  0
 12 15  1  0  0  0
 13 14  1  0  0  0
 18 24  1  0  0  0
 19 25  1  0  0  0
 20 21  1  0  0  0
 22 23  2  0  0  0
 26 27  1  0  0  0
M  END
> <minimizedAffinity>
-7.84943

$$$$
CHEMBL4280010


 27 31  0  0  0  0  0  0  0  0999 V2000
   15.5458   14.4590    3.8839 C   0  0  0  0  0  0  0  0  0  0  0  0
   14.9692   13.1609    3.2898 C   0  0  0  0  0  0  0  0  0  0  0  0
   13.3393   14.8960    2.8716 C   0  0  0  0  0  0  0  0  0  0  0  0
   14.5485   15.5382    3.5031 C   0  0  0  0  0  0  0  0  0  0  0  0
   15.0594   16.8582    2.9447 C   0  0  0  0  0  0  0  0  0  0  0  0
   14.3978   16.8339    4.2862 C   0  0  0  0  0  0  0  0  0  0  0  0
   12.6905   12.6108    2.2870 C   0  0  0  0  0  0  0  0  0  0  0  0
   13.6257   13.4768    2.8133 N   0  0  0  0  0  0  0  0  0  0  0  0
   11.6446   12.9843    1.7617 O   0  0  0  0  0  0  0  0  0  0  0  0
   12.9563   11.1649    2.3324 C   0  0  0  0  0  0  0  0  0  0  0  0
   12.2126   10.3176    1.5254 C   0  0  0  0  0  0  0  0  0  0  0  0
   13.2831    8.4563    2.3625 C   0  0  0  0  0  0  0  0  0  0  0  0
   14.0478    9.2227    3.2305 C   0  0  0  0  0  0  0  0  0  0  0  0
   13.8743   10.6043    3.2199 C   0  0  0  0  0  0  0  0  0  0  0  0
   12.3689    8.9701    1.5087 N   0  0  0  0  0  0  0  0  0  0  0  0
   14.9750   13.5781    6.1498 C   0  0  0  0  0  0  0  0  0  0  0  0
   15.8449   14.3991    5.3282 N   0  0  0  0  0  0  0  0  0  0  0  0
   16.9700   15.0070    5.8738 C   0  0  0  0  0  0  0  0  0  0  0  0
   17.8301   16.7596    7.1959 C   0  0  0  0  0  0  0  0  0  0  0  0
   19.2995   15.3602    6.3360 C   0  0  0  0  0  0  0  0  0  0  0  0
   18.3226   14.5957    5.7046 C   0  0  0  0  0  0  0  0  0  0  0  0
   19.0401   13.5527    5.0353 C   0  0  0  0  0  0  0  0  0  0  0  0
   20.3882   13.7203    5.2740 C   0  0  0  0  0  0  0  0  0  0  0  0
   16.7854   16.1082    6.6570 N   0  0  0  0  0  0  0  0  0  0  0  0
   19.1250   16.4503    7.0929 N   0  0  0  0  0  0  0  0  0  0  0  0
   20.5283   14.8256    6.0659 N   0  0  0  0  0  0  0  0  0  0  0  0
   21.3938   15.2119    6.4141 H   0  0  0  0  0  0  0  0  0  0  0  0
 16 17  1  0  0  0
  1 17  1  0  0  0
  1  2  1  0  0  0
  2  8  1  0  0  0
  3  8  1  0  0  0
  3  4  1  0  0  0
  4  5  1  0  0  0
  4  1  1  0  0  0
  5  6  1  0  0  0
  6  4  1  0  0  0
  7 10  1  0  0  0
 11 15  2  0  0  0
 12 13  2  0  0  0
 14 10  2  0  0  0
 19 24  2  0  0  0
 20 25  2  0  0  0
 21 22  1  0  0  0
 21 18  2  0  0  0
 23 26  1  0  0  0
 17 18  1  0  0  0
  8  7  1  0  0  0
 26 20  1  0  0  0
  7  9  2  0  0  0
 10 11  1  0  0  0
 12 15  1  0  0  0
 13 14  1  0  0  0
 18 24  1  0  0  0
 19 25  1  0  0  0
 20 21  1  0  0  0
 22 23  2  0  0  0
 26 27  1  0  0  0
M  END
> <minimizedAffinity>
-7.68388

$$$$
CHEMBL3718794


 27 30  0  0  0  0  0  0  0  0999 V2000
   13.0516   12.4953    2.4821 N   0  0  0  0  0  0  0  0  0  0  0  0
   12.3156   10.2044    2.2801 N   0  0  0  0  0  0  0  0  0  0  0  0
   13.8546    8.6303    3.2064 N   0  0  0  0  0  0  0  0  0  0  0  0
   12.2019   11.5270    2.0927 C   0  0  0  0  0  0  0  0  0  0  0  0
   13.4646    9.9025    2.8994 C   0  0  0  0  0  0  0  0  0  0  0  0
   14.4406   10.7836    3.3400 C   0  0  0  0  0  0  0  0  0  0  0  0
   14.1789   12.1648    3.1693 C   0  0  0  0  0  0  0  0  0  0  0  0
   15.5124    9.9702    3.8449 C   0  0  0  0  0  0  0  0  0  0  0  0
   15.0964    8.6378    3.7964 C   0  0  0  0  0  0  0  0  0  0  0  0
   15.8804    7.5801    4.2692 C   0  0  0  0  0  0  0  0  0  0  0  0
   17.1311    7.8948    4.8153 C   0  0  0  0  0  0  0  0  0  0  0  0
   17.6023    9.2116    4.8547 C   0  0  0  0  0  0  0  0  0  0  0  0
   16.8097   10.2431    4.3341 C   0  0  0  0  0  0  0  0  0  0  0  0
   13.3021    7.8115    3.0026 H   0  0  0  0  0  0  0  0  0  0  0  0
   14.9857   13.1821    3.6454 N   0  0  0  0  0  0  0  0  0  0  0  0
   14.4752   14.1563    4.6005 C   0  0  0  0  0  0  0  0  0  0  0  0
   14.3333   15.5478    3.9746 C   0  0  0  0  0  0  0  0  0  0  0  0
   15.6049   15.9509    3.2139 C   0  0  0  0  0  0  0  0  0  0  0  0
   16.1800   14.8781    2.2750 C   0  0  0  0  0  0  0  0  0  0  0  0
   16.2247   13.4981    2.9456 C   0  0  0  0  0  0  0  0  0  0  0  0
   15.4907   14.8475    0.9119 C   0  0  0  0  0  0  0  0  0  0  0  0
   13.0549   15.6668    3.1450 C   0  0  0  0  0  0  0  0  0  0  0  0
   19.0250    9.5983    6.8248 N   0  0  0  0  0  0  0  0  0  0  0  0
   18.9393    9.4659    5.4658 C   0  0  0  0  0  0  0  0  0  0  0  0
   19.9541    9.5329    4.7813 O   0  0  0  0  0  0  0  0  0  0  0  0
   19.9479    9.7568    7.2084 H   0  0  0  0  0  0  0  0  0  0  0  0
   18.2556    9.5265    7.4700 H   0  0  0  0  0  0  0  0  0  0  0  0
  3  5  1  0  0  0
  4  2  2  0  0  0
  5  6  2  0  0  0
  6  8  1  0  0  0
  7 15  1  0  0  0
  7  1  2  0  0  0
 16 15  1  0  0  0
 16 17  1  0  0  0
 17 18  1  0  0  0
 17 22  1  0  0  0
 18 19  1  0  0  0
 19 20  1  0  0  0
 19 21  1  0  0  0
 20 15  1  0  0  0
  9  3  1  0  0  0
  9 10  2  0  0  0
 11 12  2  0  0  0
 12 24  1  0  0  0
 13  8  2  0  0  0
 24 23  1  0  0  0
  4  1  1  0  0  0
  5  2  1  0  0  0
  6  7  1  0  0  0
  8  9  1  0  0  0
 10 11  1  0  0  0
 12 13  1  0  0  0
 24 25  2  0  0  0
  3 14  1  0  0  0
 23 26  1  0  0  0
 23 27  1  0  0  0
M  END
> <minimizedAffinity>
-9.37123

$$$$
CHEMBL3718794


 27 30  0  0  0  0  0  0  0  0999 V2000
   13.4667   14.9630    3.3235 N   0  0  0  0  0  0  0  0  0  0  0  0
   11.6326   13.9148    2.1537 N   0  0  0  0  0  0  0  0  0  0  0  0
   11.7868   11.5323    2.0921 N   0  0  0  0  0  0  0  0  0  0  0  0
   12.3237   14.9678    2.6129 C   0  0  0  0  0  0  0  0  0  0  0  0
   12.2535   12.7650    2.4491 C   0  0  0  0  0  0  0  0  0  0  0  0
   13.4379   12.6039    3.1522 C   0  0  0  0  0  0  0  0  0  0  0  0
   14.0400   13.7776    3.6674 C   0  0  0  0  0  0  0  0  0  0  0  0
   13.7334   11.1980    3.1170 C   0  0  0  0  0  0  0  0  0  0  0  0
   12.6620   10.5520    2.4963 C   0  0  0  0  0  0  0  0  0  0  0  0
   12.5967    9.1625    2.3471 C   0  0  0  0  0  0  0  0  0  0  0  0
   13.6607    8.4061    2.8542 C   0  0  0  0  0  0  0  0  0  0  0  0
   14.7694    9.0126    3.4544 C   0  0  0  0  0  0  0  0  0  0  0  0
   14.8232   10.4095    3.5501 C   0  0  0  0  0  0  0  0  0  0  0  0
   10.9271   11.3849    1.5859 H   0  0  0  0  0  0  0  0  0  0  0  0
   15.1580   13.7948    4.4812 N   0  0  0  0  0  0  0  0  0  0  0  0
   15.0271   13.8706    5.9300 C   0  0  0  0  0  0  0  0  0  0  0  0
   15.5064   15.2199    6.4756 C   0  0  0  0  0  0  0  0  0  0  0  0
   16.8790   15.5996    5.9013 C   0  0  0  0  0  0  0  0  0  0  0  0
   17.0276   15.4304    4.3806 C   0  0  0  0  0  0  0  0  0  0  0  0
   16.4615   14.0876    3.8982 C   0  0  0  0  0  0  0  0  0  0  0  0
   16.4772   16.6179    3.5924 C   0  0  0  0  0  0  0  0  0  0  0  0
   14.4453   16.3073    6.3064 C   0  0  0  0  0  0  0  0  0  0  0  0
   15.8356    6.8051    3.6665 N   0  0  0  0  0  0  0  0  0  0  0  0
   15.8551    8.1361    3.9824 C   0  0  0  0  0  0  0  0  0  0  0  0
   16.7672    8.5874    4.6660 O   0  0  0  0  0  0  0  0  0  0  0  0
   16.5933    6.2410    4.0294 H   0  0  0  0  0  0  0  0  0  0  0  0
   15.1490    6.3505    3.0872 H   0  0  0  0  0  0  0  0  0  0  0  0
  3  5  1  0  0  0
  4  2  2  0  0  0
  5  6  2  0  0  0
  6  8  1  0  0  0
  7 15  1  0  0  0
  7  1  2  0  0  0
 16 15  1  0  0  0
 16 17  1  0  0  0
 17 18  1  0  0  0
 17 22  1  0  0  0
 18 19  1  0  0  0
 19 20  1  0  0  0
 19 21  1  0  0  0
 20 15  1  0  0  0
  9  3  1  0  0  0
  9 10  2  0  0  0
 11 12  2  0  0  0
 12 24  1  0  0  0
 13  8  2  0  0  0
 24 23  1  0  0  0
  4  1  1  0  0  0
  5  2  1  0  0  0
  6  7  1  0  0  0
  8  9  1  0  0  0
 10 11  1  0  0  0
 12 13  1  0  0  0
 24 25  2  0  0  0
  3 14  1  0  0  0
 23 26  1  0  0  0
 23 27  1  0  0  0
M  END
> <minimizedAffinity>
-9.25426

$$$$
CHEMBL3718794


 27 30  0  0  0  0  0  0  0  0999 V2000
   13.4986   15.8552    3.3886 N   0  0  0  0  0  0  0  0  0  0  0  0
   11.9668   14.1977    2.5301 N   0  0  0  0  0  0  0  0  0  0  0  0
   12.7367   11.9558    2.8218 N   0  0  0  0  0  0  0  0  0  0  0  0
   12.3726   15.4525    2.7713 C   0  0  0  0  0  0  0  0  0  0  0  0
   12.8757   13.3081    2.9512 C   0  0  0  0  0  0  0  0  0  0  0  0
   14.0824   13.5712    3.5820 C   0  0  0  0  0  0  0  0  0  0  0  0
   14.3724   14.9277    3.8665 C   0  0  0  0  0  0  0  0  0  0  0  0
   14.7341   12.3002    3.7401 C   0  0  0  0  0  0  0  0  0  0  0  0
   13.8500   11.3101    3.3056 C   0  0  0  0  0  0  0  0  0  0  0  0
   14.1457    9.9446    3.3754 C   0  0  0  0  0  0  0  0  0  0  0  0
   15.3858    9.5771    3.9125 C   0  0  0  0  0  0  0  0  0  0  0  0
   16.3156   10.5355    4.3302 C   0  0  0  0  0  0  0  0  0  0  0  0
   16.0051   11.8964    4.2074 C   0  0  0  0  0  0  0  0  0  0  0  0
   11.9301   11.5136    2.4083 H   0  0  0  0  0  0  0  0  0  0  0  0
   15.4720   15.3624    4.5839 N   0  0  0  0  0  0  0  0  0  0  0  0
   15.5652   15.1352    6.0197 C   0  0  0  0  0  0  0  0  0  0  0  0
   15.4442   16.4410    6.8123 C   0  0  0  0  0  0  0  0  0  0  0  0
   16.3638   17.5296    6.2402 C   0  0  0  0  0  0  0  0  0  0  0  0
   16.3172   17.6968    4.7127 C   0  0  0  0  0  0  0  0  0  0  0  0
   16.3704   16.3441    3.9892 C   0  0  0  0  0  0  0  0  0  0  0  0
   15.1539   18.5692    4.2440 C   0  0  0  0  0  0  0  0  0  0  0  0
   13.9873   16.8798    6.9598 C   0  0  0  0  0  0  0  0  0  0  0  0
   17.5940    9.4219    6.1135 N   0  0  0  0  0  0  0  0  0  0  0  0
   17.6086   10.0627    4.9048 C   0  0  0  0  0  0  0  0  0  0  0  0
   18.6685   10.2146    4.3078 O   0  0  0  0  0  0  0  0  0  0  0  0
   18.4859    9.1022    6.4688 H   0  0  0  0  0  0  0  0  0  0  0  0
   16.7730    9.2225    6.6609 H   0  0  0  0  0  0  0  0  0  0  0  0
  3  5  1  0  0  0
  4  2  2  0  0  0
  5  6  2  0  0  0
  6  8  1  0  0  0
  7 15  1  0  0  0
  7  1  2  0  0  0
 16 15  1  0  0  0
 16 17  1  0  0  0
 17 18  1  0  0  0
 17 22  1  0  0  0
 18 19  1  0  0  0
 19 20  1  0  0  0
 19 21  1  0  0  0
 20 15  1  0  0  0
  9  3  1  0  0  0
  9 10  2  0  0  0
 11 12  2  0  0  0
 12 24  1  0  0  0
 13  8  2  0  0  0
 24 23  1  0  0  0
  4  1  1  0  0  0
  5  2  1  0  0  0
  6  7  1  0  0  0
  8  9  1  0  0  0
 10 11  1  0  0  0
 12 13  1  0  0  0
 24 25  2  0  0  0
  3 14  1  0  0  0
 23 26  1  0  0  0
 23 27  1  0  0  0
M  END
> <minimizedAffinity>
-9.22130

$$$$
CHEMBL3718794


 27 30  0  0  0  0  0  0  0  0999 V2000
   16.9404   16.3749    6.1625 N   0  0  0  0  0  0  0  0  0  0  0  0
   17.9559   14.2014    6.4366 N   0  0  0  0  0  0  0  0  0  0  0  0
   16.8076   12.4652    5.2656 N   0  0  0  0  0  0  0  0  0  0  0  0
   17.8525   15.5193    6.6596 C   0  0  0  0  0  0  0  0  0  0  0  0
   16.9643   13.7670    5.6474 C   0  0  0  0  0  0  0  0  0  0  0  0
   15.9483   14.5207    5.0794 C   0  0  0  0  0  0  0  0  0  0  0  0
   15.9840   15.9176    5.3091 C   0  0  0  0  0  0  0  0  0  0  0  0
   15.0880   13.5864    4.4069 C   0  0  0  0  0  0  0  0  0  0  0  0
   15.6770   12.3232    4.4963 C   0  0  0  0  0  0  0  0  0  0  0  0
   15.1284   11.1855    3.8948 C   0  0  0  0  0  0  0  0  0  0  0  0
   13.9391   11.3447    3.1725 C   0  0  0  0  0  0  0  0  0  0  0  0
   13.2970   12.5845    3.0835 C   0  0  0  0  0  0  0  0  0  0  0  0
   13.8507   13.6957    3.7332 C   0  0  0  0  0  0  0  0  0  0  0  0
   17.4348   11.7235    5.5370 H   0  0  0  0  0  0  0  0  0  0  0  0
   15.1195   16.8308    4.7334 N   0  0  0  0  0  0  0  0  0  0  0  0
   15.6247   18.0384    4.0944 C   0  0  0  0  0  0  0  0  0  0  0  0
   15.2646   19.2975    4.8900 C   0  0  0  0  0  0  0  0  0  0  0  0
   13.7782   19.3093    5.2754 C   0  0  0  0  0  0  0  0  0  0  0  0
   13.2399   17.9970    5.8683 C   0  0  0  0  0  0  0  0  0  0  0  0
   13.7002   16.7754    5.0607 C   0  0  0  0  0  0  0  0  0  0  0  0
   13.5266   17.8564    7.3624 C   0  0  0  0  0  0  0  0  0  0  0  0
   16.2097   19.5084    6.0728 C   0  0  0  0  0  0  0  0  0  0  0  0
   11.5607   13.9122    1.9533 N   0  0  0  0  0  0  0  0  0  0  0  0
   12.0412   12.6744    2.2830 C   0  0  0  0  0  0  0  0  0  0  0  0
   11.4530   11.6697    1.8991 O   0  0  0  0  0  0  0  0  0  0  0  0
   10.7147   13.9380    1.3987 H   0  0  0  0  0  0  0  0  0  0  0  0
   11.9900   14.7905    2.1940 H   0  0  0  0  0  0  0  0  0  0  0  0
  3  5  1  0  0  0
  4  2  2  0  0  0
  5  6  2  0  0  0
  6  8  1  0  0  0
  7 15  1  0  0  0
  7  1  2  0  0  0
 16 15  1  0  0  0
 16 17  1  0  0  0
 17 18  1  0  0  0
 17 22  1  0  0  0
 18 19  1  0  0  0
 19 20  1  0  0  0
 19 21  1  0  0  0
 20 15  1  0  0  0
  9  3  1  0  0  0
  9 10  2  0  0  0
 11 12  2  0  0  0
 12 24  1  0  0  0
 13  8  2  0  0  0
 24 23  1  0  0  0
  4  1  1  0  0  0
  5  2  1  0  0  0
  6  7  1  0  0  0
  8  9  1  0  0  0
 10 11  1  0  0  0
 12 13  1  0  0  0
 24 25  2  0  0  0
  3 14  1  0  0  0
 23 26  1  0  0  0
 23 27  1  0  0  0
M  END
> <minimizedAffinity>
-8.80063

$$$$
CHEMBL3718794


 27 30  0  0  0  0  0  0  0  0999 V2000
   17.6346   10.9794    4.9156 N   0  0  0  0  0  0  0  0  0  0  0  0
   17.0483    8.6372    4.8846 N   0  0  0  0  0  0  0  0  0  0  0  0
   15.0197    8.1844    3.7081 N   0  0  0  0  0  0  0  0  0  0  0  0
   17.8127    9.6830    5.2301 C   0  0  0  0  0  0  0  0  0  0  0  0
   15.9800    9.0331    4.1797 C   0  0  0  0  0  0  0  0  0  0  0  0
   15.6547   10.3261    3.7982 C   0  0  0  0  0  0  0  0  0  0  0  0
   16.5768   11.3447    4.1412 C   0  0  0  0  0  0  0  0  0  0  0  0
   14.3746   10.2398    3.1510 C   0  0  0  0  0  0  0  0  0  0  0  0
   14.0305    8.8890    3.0639 C   0  0  0  0  0  0  0  0  0  0  0  0
   12.8642    8.4419    2.4338 C   0  0  0  0  0  0  0  0  0  0  0  0
   12.0225    9.4080    1.8685 C   0  0  0  0  0  0  0  0  0  0  0  0
   12.3107   10.7740    1.9601 C   0  0  0  0  0  0  0  0  0  0  0  0
   13.4657   11.1910    2.6350 C   0  0  0  0  0  0  0  0  0  0  0  0
   15.0423    7.1850    3.8416 H   0  0  0  0  0  0  0  0  0  0  0  0
   16.4695   12.6664    3.7485 N   0  0  0  0  0  0  0  0  0  0  0  0
   17.6491   13.5153    3.6503 C   0  0  0  0  0  0  0  0  0  0  0  0
   17.6641   14.5977    4.7349 C   0  0  0  0  0  0  0  0  0  0  0  0
   16.3143   15.3251    4.8176 C   0  0  0  0  0  0  0  0  0  0  0  0
   15.0747   14.4159    4.8323 C   0  0  0  0  0  0  0  0  0  0  0  0
   15.1635   13.3135    3.7678 C   0  0  0  0  0  0  0  0  0  0  0  0
   14.7545   13.8673    6.2218 C   0  0  0  0  0  0  0  0  0  0  0  0
   18.1511   14.0479    6.0756 C   0  0  0  0  0  0  0  0  0  0  0  0
   11.6507   13.0763    1.3959 N   0  0  0  0  0  0  0  0  0  0  0  0
   11.3710   11.7393    1.3191 C   0  0  0  0  0  0  0  0  0  0  0  0
   10.3774   11.3581    0.7107 O   0  0  0  0  0  0  0  0  0  0  0  0
   11.0006   13.7033    0.9395 H   0  0  0  0  0  0  0  0  0  0  0  0
   12.4562   13.4816    1.8437 H   0  0  0  0  0  0  0  0  0  0  0  0
  3  5  1  0  0  0
  4  2  2  0  0  0
  5  6  2  0  0  0
  6  8  1  0  0  0
  7 15  1  0  0  0
  7  1  2  0  0  0
 16 15  1  0  0  0
 16 17  1  0  0  0
 17 18  1  0  0  0
 17 22  1  0  0  0
 18 19  1  0  0  0
 19 20  1  0  0  0
 19 21  1  0  0  0
 20 15  1  0  0  0
  9  3  1  0  0  0
  9 10  2  0  0  0
 11 12  2  0  0  0
 12 24  1  0  0  0
 13  8  2  0  0  0
 24 23  1  0  0  0
  4  1  1  0  0  0
  5  2  1  0  0  0
  6  7  1  0  0  0
  8  9  1  0  0  0
 10 11  1  0  0  0
 12 13  1  0  0  0
 24 25  2  0  0  0
  3 14  1  0  0  0
 23 26  1  0  0  0
 23 27  1  0  0  0
M  END
> <minimizedAffinity>
-8.58492

$$$$
CHEMBL3718794


 27 30  0  0  0  0  0  0  0  0999 V2000
   17.6633   14.0024    5.1802 N   0  0  0  0  0  0  0  0  0  0  0  0
   18.5042   11.7475    5.3773 N   0  0  0  0  0  0  0  0  0  0  0  0
   17.0735   10.1132    4.3842 N   0  0  0  0  0  0  0  0  0  0  0  0
   18.5471   13.0714    5.5842 C   0  0  0  0  0  0  0  0  0  0  0  0
   17.3910   11.3986    4.7187 C   0  0  0  0  0  0  0  0  0  0  0  0
   16.3869   12.2371    4.2585 C   0  0  0  0  0  0  0  0  0  0  0  0
   16.5752   13.6269    4.4541 C   0  0  0  0  0  0  0  0  0  0  0  0
   15.3723   11.3795    3.7104 C   0  0  0  0  0  0  0  0  0  0  0  0
   15.8515   10.0684    3.7557 C   0  0  0  0  0  0  0  0  0  0  0  0
   15.1352    8.9803    3.2458 C   0  0  0  0  0  0  0  0  0  0  0  0
   13.8879    9.2412    2.6647 C   0  0  0  0  0  0  0  0  0  0  0  0
   13.3541   10.5339    2.6265 C   0  0  0  0  0  0  0  0  0  0  0  0
   14.0787   11.5956    3.1843 C   0  0  0  0  0  0  0  0  0  0  0  0
   17.6590    9.3196    4.5952 H   0  0  0  0  0  0  0  0  0  0  0  0
   15.7344   14.6102    3.9654 N   0  0  0  0  0  0  0  0  0  0  0  0
   16.2201   15.6080    3.0218 C   0  0  0  0  0  0  0  0  0  0  0  0
   16.2908   17.0025    3.6531 C   0  0  0  0  0  0  0  0  0  0  0  0
   14.9896   17.3487    4.3912 C   0  0  0  0  0  0  0  0  0  0  0  0
   14.4438   16.2496    5.3172 C   0  0  0  0  0  0  0  0  0  0  0  0
   14.4704   14.8709    4.6429 C   0  0  0  0  0  0  0  0  0  0  0  0
   15.1089   16.2447    6.6926 C   0  0  0  0  0  0  0  0  0  0  0  0
   17.5477   17.1737    4.5063 C   0  0  0  0  0  0  0  0  0  0  0  0
   11.6006    9.8096    1.0596 N   0  0  0  0  0  0  0  0  0  0  0  0
   12.0256   10.7312    1.9771 C   0  0  0  0  0  0  0  0  0  0  0  0
   11.3058   11.6805    2.2663 O   0  0  0  0  0  0  0  0  0  0  0  0
   10.6896    9.9656    0.6476 H   0  0  0  0  0  0  0  0  0  0  0  0
   12.1048    8.9835    0.7822 H   0  0  0  0  0  0  0  0  0  0  0  0
  3  5  1  0  0  0
  4  2  2  0  0  0
  5  6  2  0  0  0
  6  8  1  0  0  0
  7 15  1  0  0  0
  7  1  2  0  0  0
 16 15  1  0  0  0
 16 17  1  0  0  0
 17 18  1  0  0  0
 17 22  1  0  0  0
 18 19  1  0  0  0
 19 20  1  0  0  0
 19 21  1  0  0  0
 20 15  1  0  0  0
  9  3  1  0  0  0
  9 10  2  0  0  0
 11 12  2  0  0  0
 12 24  1  0  0  0
 13  8  2  0  0  0
 24 23  1  0  0  0
  4  1  1  0  0  0
  5  2  1  0  0  0
  6  7  1  0  0  0
  8  9  1  0  0  0
 10 11  1  0  0  0
 12 13  1  0  0  0
 24 25  2  0  0  0
  3 14  1  0  0  0
 23 26  1  0  0  0
 23 27  1  0  0  0
M  END
> <minimizedAffinity>
-8.55232

$$$$
CHEMBL3718794


 27 30  0  0  0  0  0  0  0  0999 V2000
   17.6548   13.8088    4.7200 N   0  0  0  0  0  0  0  0  0  0  0  0
   19.4414   15.3788    5.1369 N   0  0  0  0  0  0  0  0  0  0  0  0
   18.6682   17.5849    5.6261 N   0  0  0  0  0  0  0  0  0  0  0  0
   18.9462   14.1735    4.8214 C   0  0  0  0  0  0  0  0  0  0  0  0
   18.4588   16.2724    5.3125 C   0  0  0  0  0  0  0  0  0  0  0  0
   17.0928   16.0508    5.2226 C   0  0  0  0  0  0  0  0  0  0  0  0
   16.6764   14.7211    4.9699 C   0  0  0  0  0  0  0  0  0  0  0  0
   16.4693   17.3341    5.3950 C   0  0  0  0  0  0  0  0  0  0  0  0
   17.4718   18.2587    5.6961 C   0  0  0  0  0  0  0  0  0  0  0  0
   17.2046   19.6018    5.9823 C   0  0  0  0  0  0  0  0  0  0  0  0
   15.8662   20.0136    5.9652 C   0  0  0  0  0  0  0  0  0  0  0  0
   14.8324   19.1298    5.6372 C   0  0  0  0  0  0  0  0  0  0  0  0
   15.1381   17.8011    5.3141 C   0  0  0  0  0  0  0  0  0  0  0  0
   19.5824   17.9880    5.7640 H   0  0  0  0  0  0  0  0  0  0  0  0
   15.3594   14.2993    4.9570 N   0  0  0  0  0  0  0  0  0  0  0  0
   14.9774   13.0229    5.5459 C   0  0  0  0  0  0  0  0  0  0  0  0
   14.5511   12.0082    4.4797 C   0  0  0  0  0  0  0  0  0  0  0  0
   13.5486   12.6227    3.4921 C   0  0  0  0  0  0  0  0  0  0  0  0
   13.9254   14.0098    2.9469 C   0  0  0  0  0  0  0  0  0  0  0  0
   14.4102   14.9480    4.0609 C   0  0  0  0  0  0  0  0  0  0  0  0
   14.8968   13.9436    1.7695 C   0  0  0  0  0  0  0  0  0  0  0  0
   15.7581   11.3550    3.8063 C   0  0  0  0  0  0  0  0  0  0  0  0
   12.5926   19.2235    6.6517 N   0  0  0  0  0  0  0  0  0  0  0  0
   13.4315   19.6426    5.6555 C   0  0  0  0  0  0  0  0  0  0  0  0
   13.0312   20.4428    4.8175 O   0  0  0  0  0  0  0  0  0  0  0  0
   11.6534   19.6002    6.6430 H   0  0  0  0  0  0  0  0  0  0  0  0
   12.8388   18.5963    7.3997 H   0  0  0  0  0  0  0  0  0  0  0  0
  3  5  1  0  0  0
  4  2  2  0  0  0
  5  6  2  0  0  0
  6  8  1  0  0  0
  7 15  1  0  0  0
  7  1  2  0  0  0
 16 15  1  0  0  0
 16 17  1  0  0  0
 17 18  1  0  0  0
 17 22  1  0  0  0
 18 19  1  0  0  0
 19 20  1  0  0  0
 19 21  1  0  0  0
 20 15  1  0  0  0
  9  3  1  0  0  0
  9 10  2  0  0  0
 11 12  2  0  0  0
 12 24  1  0  0  0
 13  8  2  0  0  0
 24 23  1  0  0  0
  4  1  1  0  0  0
  5  2  1  0  0  0
  6  7  1  0  0  0
  8  9  1  0  0  0
 10 11  1  0  0  0
 12 13  1  0  0  0
 24 25  2  0  0  0
  3 14  1  0  0  0
 23 26  1  0  0  0
 23 27  1  0  0  0
M  END
> <minimizedAffinity>
-8.15773

$$$$
CHEMBL3718794


 27 30  0  0  0  0  0  0  0  0999 V2000
   19.0323   11.3535    5.6863 N   0  0  0  0  0  0  0  0  0  0  0  0
   18.0902    9.1808    5.2144 N   0  0  0  0  0  0  0  0  0  0  0  0
   15.9677    9.2855    4.1244 N   0  0  0  0  0  0  0  0  0  0  0  0
   19.0211   10.0079    5.7110 C   0  0  0  0  0  0  0  0  0  0  0  0
   17.0669    9.8672    4.6885 C   0  0  0  0  0  0  0  0  0  0  0  0
   16.9294   11.2448    4.6087 C   0  0  0  0  0  0  0  0  0  0  0  0
   18.0116   12.0238    5.0855 C   0  0  0  0  0  0  0  0  0  0  0  0
   15.6248   11.4830    4.0550 C   0  0  0  0  0  0  0  0  0  0  0  0
   15.0727   10.2458    3.7158 C   0  0  0  0  0  0  0  0  0  0  0  0
   13.8255   10.1155    3.0956 C   0  0  0  0  0  0  0  0  0  0  0  0
   13.1198   11.2904    2.8072 C   0  0  0  0  0  0  0  0  0  0  0  0
   13.6194   12.5493    3.1581 C   0  0  0  0  0  0  0  0  0  0  0  0
   14.8527   12.6423    3.8166 C   0  0  0  0  0  0  0  0  0  0  0  0
   15.8412    8.2880    4.0457 H   0  0  0  0  0  0  0  0  0  0  0  0
   18.0931   13.4007    4.9844 N   0  0  0  0  0  0  0  0  0  0  0  0
   19.0499   14.0288    4.0834 C   0  0  0  0  0  0  0  0  0  0  0  0
   20.1663   14.7474    4.8485 C   0  0  0  0  0  0  0  0  0  0  0  0
   19.5966   15.6426    5.9586 C   0  0  0  0  0  0  0  0  0  0  0  0
   18.5238   14.9909    6.8461 C   0  0  0  0  0  0  0  0  0  0  0  0
   17.4814   14.2301    6.0151 C   0  0  0  0  0  0  0  0  0  0  0  0
   19.1155   14.1404    7.9690 C   0  0  0  0  0  0  0  0  0  0  0  0
   21.2384   13.7714    5.3331 C   0  0  0  0  0  0  0  0  0  0  0  0
   13.4604   14.9457    2.6228 N   0  0  0  0  0  0  0  0  0  0  0  0
   12.8137   13.7536    2.8031 C   0  0  0  0  0  0  0  0  0  0  0  0
   11.5994   13.6890    2.6477 O   0  0  0  0  0  0  0  0  0  0  0  0
   12.8866   15.7399    2.3698 H   0  0  0  0  0  0  0  0  0  0  0  0
   14.4540   15.0901    2.6962 H   0  0  0  0  0  0  0  0  0  0  0  0
  3  5  1  0  0  0
  4  2  2  0  0  0
  5  6  2  0  0  0
  6  8  1  0  0  0
  7 15  1  0  0  0
  7  1  2  0  0  0
 16 15  1  0  0  0
 16 17  1  0  0  0
 17 18  1  0  0  0
 17 22  1  0  0  0
 18 19  1  0  0  0
 19 20  1  0  0  0
 19 21  1  0  0  0
 20 15  1  0  0  0
  9  3  1  0  0  0
  9 10  2  0  0  0
 11 12  2  0  0  0
 12 24  1  0  0  0
 13  8  2  0  0  0
 24 23  1  0  0  0
  4  1  1  0  0  0
  5  2  1  0  0  0
  6  7  1  0  0  0
  8  9  1  0  0  0
 10 11  1  0  0  0
 12 13  1  0  0  0
 24 25  2  0  0  0
  3 14  1  0  0  0
 23 26  1  0  0  0
 23 27  1  0  0  0
M  END
> <minimizedAffinity>
-7.94759

$$$$
CHEMBL3718794


 27 30  0  0  0  0  0  0  0  0999 V2000
   16.5532   11.8272    3.5869 N   0  0  0  0  0  0  0  0  0  0  0  0
   18.4341   10.5702    4.4314 N   0  0  0  0  0  0  0  0  0  0  0  0
   19.7620   11.7904    5.9972 N   0  0  0  0  0  0  0  0  0  0  0  0
   17.3492   10.7447    3.6633 C   0  0  0  0  0  0  0  0  0  0  0  0
   18.7050   11.6742    5.1405 C   0  0  0  0  0  0  0  0  0  0  0  0
   17.9928   12.8640    5.1514 C   0  0  0  0  0  0  0  0  0  0  0  0
   16.8134   12.9101    4.3690 C   0  0  0  0  0  0  0  0  0  0  0  0
   18.7359   13.7649    5.9889 C   0  0  0  0  0  0  0  0  0  0  0  0
   19.8023   13.0522    6.5418 C   0  0  0  0  0  0  0  0  0  0  0  0
   20.6988   13.6154    7.4562 C   0  0  0  0  0  0  0  0  0  0  0  0
   20.4961   14.9518    7.8225 C   0  0  0  0  0  0  0  0  0  0  0  0
   19.4609   15.7135    7.2696 C   0  0  0  0  0  0  0  0  0  0  0  0
   18.6060   15.1315    6.3242 C   0  0  0  0  0  0  0  0  0  0  0  0
   20.4207   11.0480    6.1766 H   0  0  0  0  0  0  0  0  0  0  0  0
   15.9261   13.9707    4.3469 N   0  0  0  0  0  0  0  0  0  0  0  0
   14.5315   13.7867    4.7251 C   0  0  0  0  0  0  0  0  0  0  0  0
   13.5922   13.9217    3.5219 C   0  0  0  0  0  0  0  0  0  0  0  0
   13.9089   15.1821    2.7039 C   0  0  0  0  0  0  0  0  0  0  0  0
   15.3965   15.4070    2.3880 C   0  0  0  0  0  0  0  0  0  0  0  0
   16.2816   15.1844    3.6223 C   0  0  0  0  0  0  0  0  0  0  0  0
   15.8737   14.6152    1.1716 C   0  0  0  0  0  0  0  0  0  0  0  0
   13.5525   12.6403    2.6892 C   0  0  0  0  0  0  0  0  0  0  0  0
   18.0710   17.7129    7.6233 N   0  0  0  0  0  0  0  0  0  0  0  0
   19.3028   17.1261    7.7228 C   0  0  0  0  0  0  0  0  0  0  0  0
   20.2410   17.7545    8.2000 O   0  0  0  0  0  0  0  0  0  0  0  0
   17.9946   18.6671    7.9516 H   0  0  0  0  0  0  0  0  0  0  0  0
   17.2367   17.2687    7.2767 H   0  0  0  0  0  0  0  0  0  0  0  0
  3  5  1  0  0  0
  4  2  2  0  0  0
  5  6  2  0  0  0
  6  8  1  0  0  0
  7 15  1  0  0  0
  7  1  2  0  0  0
 16 15  1  0  0  0
 16 17  1  0  0  0
 17 18  1  0  0  0
 17 22  1  0  0  0
 18 19  1  0  0  0
 19 20  1  0  0  0
 19 21  1  0  0  0
 20 15  1  0  0  0
  9  3  1  0  0  0
  9 10  2  0  0  0
 11 12  2  0  0  0
 12 24  1  0  0  0
 13  8  2  0  0  0
 24 23  1  0  0  0
  4  1  1  0  0  0
  5  2  1  0  0  0
  6  7  1  0  0  0
  8  9  1  0  0  0
 10 11  1  0  0  0
 12 13  1  0  0  0
 24 25  2  0  0  0
  3 14  1  0  0  0
 23 26  1  0  0  0
 23 27  1  0  0  0
M  END
> <minimizedAffinity>
-7.85236

$$$$
CHEMBL3719102


 26 29  0  0  0  0  0  0  0  0999 V2000
   13.3327   14.1002    3.1179 N   0  0  0  0  0  0  0  0  0  0  0  0
   12.0565   12.3079    2.1197 N   0  0  0  0  0  0  0  0  0  0  0  0
   12.9682   10.1418    2.5520 N   0  0  0  0  0  0  0  0  0  0  0  0
   12.3256   13.5957    2.3805 C   0  0  0  0  0  0  0  0  0  0  0  0
   12.9771   11.5029    2.6669 C   0  0  0  0  0  0  0  0  0  0  0  0
   14.0723   11.8749    3.4313 C   0  0  0  0  0  0  0  0  0  0  0  0
   14.2167   13.2547    3.7134 C   0  0  0  0  0  0  0  0  0  0  0  0
   14.8007   10.6665    3.7001 C   0  0  0  0  0  0  0  0  0  0  0  0
   14.0636    9.5995    3.1817 C   0  0  0  0  0  0  0  0  0  0  0  0
   14.4631    8.2656    3.3163 C   0  0  0  0  0  0  0  0  0  0  0  0
   15.6547    8.0129    4.0079 C   0  0  0  0  0  0  0  0  0  0  0  0
   16.4409    9.0526    4.5168 C   0  0  0  0  0  0  0  0  0  0  0  0
   16.0318   10.3797    4.3312 C   0  0  0  0  0  0  0  0  0  0  0  0
   12.2584    9.6273    2.0532 H   0  0  0  0  0  0  0  0  0  0  0  0
   15.1936   13.7845    4.5378 N   0  0  0  0  0  0  0  0  0  0  0  0
   14.9044   14.0503    5.9414 C   0  0  0  0  0  0  0  0  0  0  0  0
   14.9006   15.5483    6.2282 C   0  0  0  0  0  0  0  0  0  0  0  0
   16.1801   16.2075    5.7216 C   0  0  0  0  0  0  0  0  0  0  0  0
   16.4137   15.9307    4.2294 C   0  0  0  0  0  0  0  0  0  0  0  0
   16.3618   14.4224    3.9389 C   0  0  0  0  0  0  0  0  0  0  0  0
   15.4409   16.7210    3.3518 C   0  0  0  0  0  0  0  0  0  0  0  0
   18.2896    9.6557    6.0253 N   0  0  0  0  0  0  0  0  0  0  0  0
   17.6907    8.6997    5.2513 C   0  0  0  0  0  0  0  0  0  0  0  0
   18.1723    7.5739    5.1918 O   0  0  0  0  0  0  0  0  0  0  0  0
   19.1285    9.3801    6.5193 H   0  0  0  0  0  0  0  0  0  0  0  0
   17.9553   10.5959    6.1589 H   0  0  0  0  0  0  0  0  0  0  0  0
  3  5  1  0  0  0
  4  2  2  0  0  0
  5  6  2  0  0  0
  6  8  1  0  0  0
  7 15  1  0  0  0
  7  1  2  0  0  0
 16 15  1  0  0  0
 16 17  1  0  0  0
 17 18  1  0  0  0
 18 19  1  0  0  0
 19 20  1  0  0  0
 19 21  1  0  0  0
 20 15  1  0  0  0
  9  3  1  0  0  0
  9 10  2  0  0  0
 11 12  2  0  0  0
 12 23  1  0  0  0
 13  8  2  0  0  0
 23 22  1  0  0  0
  4  1  1  0  0  0
  5  2  1  0  0  0
  6  7  1  0  0  0
  8  9  1  0  0  0
 10 11  1  0  0  0
 12 13  1  0  0  0
 23 24  2  0  0  0
  3 14  1  0  0  0
 22 25  1  0  0  0
 22 26  1  0  0  0
M  END
> <minimizedAffinity>
-9.19831

$$$$
CHEMBL3719102


 26 29  0  0  0  0  0  0  0  0999 V2000
   17.7911   13.8908    5.0676 N   0  0  0  0  0  0  0  0  0  0  0  0
   18.9193   11.8024    5.5185 N   0  0  0  0  0  0  0  0  0  0  0  0
   17.7115    9.8889    4.7504 N   0  0  0  0  0  0  0  0  0  0  0  0
   18.7896   13.1366    5.5642 C   0  0  0  0  0  0  0  0  0  0  0  0
   17.8610   11.2355    4.9236 C   0  0  0  0  0  0  0  0  0  0  0  0
   16.7567   11.8762    4.3832 C   0  0  0  0  0  0  0  0  0  0  0  0
   16.7597   13.2915    4.4133 C   0  0  0  0  0  0  0  0  0  0  0  0
   15.8632   10.8371    3.9529 C   0  0  0  0  0  0  0  0  0  0  0  0
   16.5056    9.6129    4.1502 C   0  0  0  0  0  0  0  0  0  0  0  0
   15.9337    8.3891    3.7867 C   0  0  0  0  0  0  0  0  0  0  0  0
   14.6631    8.4174    3.1976 C   0  0  0  0  0  0  0  0  0  0  0  0
   13.9696    9.6181    3.0094 C   0  0  0  0  0  0  0  0  0  0  0  0
   14.5548   10.8231    3.4200 C   0  0  0  0  0  0  0  0  0  0  0  0
   18.3936    9.2077    5.0469 H   0  0  0  0  0  0  0  0  0  0  0  0
   15.7865   14.0865    3.8340 N   0  0  0  0  0  0  0  0  0  0  0  0
   16.0970   14.8846    2.6547 C   0  0  0  0  0  0  0  0  0  0  0  0
   16.0685   16.3752    2.9762 C   0  0  0  0  0  0  0  0  0  0  0  0
   14.7627   16.7638    3.6635 C   0  0  0  0  0  0  0  0  0  0  0  0
   14.5063   15.9218    4.9216 C   0  0  0  0  0  0  0  0  0  0  0  0
   14.5906   14.4210    4.6010 C   0  0  0  0  0  0  0  0  0  0  0  0
   15.4409   16.3207    6.0655 C   0  0  0  0  0  0  0  0  0  0  0  0
   11.9174   10.7270    2.2244 N   0  0  0  0  0  0  0  0  0  0  0  0
   12.6253    9.5646    2.3645 C   0  0  0  0  0  0  0  0  0  0  0  0
   12.1590    8.5124    1.9421 O   0  0  0  0  0  0  0  0  0  0  0  0
   11.0150   10.6575    1.7721 H   0  0  0  0  0  0  0  0  0  0  0  0
   12.2273   11.6404    2.5130 H   0  0  0  0  0  0  0  0  0  0  0  0
  3  5  1  0  0  0
  4  2  2  0  0  0
  5  6  2  0  0  0
  6  8  1  0  0  0
  7 15  1  0  0  0
  7  1  2  0  0  0
 16 15  1  0  0  0
 16 17  1  0  0  0
 17 18  1  0  0  0
 18 19  1  0  0  0
 19 20  1  0  0  0
 19 21  1  0  0  0
 20 15  1  0  0  0
  9  3  1  0  0  0
  9 10  2  0  0  0
 11 12  2  0  0  0
 12 23  1  0  0  0
 13  8  2  0  0  0
 23 22  1  0  0  0
  4  1  1  0  0  0
  5  2  1  0  0  0
  6  7  1  0  0  0
  8  9  1  0  0  0
 10 11  1  0  0  0
 12 13  1  0  0  0
 23 24  2  0  0  0
  3 14  1  0  0  0
 22 25  1  0  0  0
 22 26  1  0  0  0
M  END
> <minimizedAffinity>
-8.58068

$$$$
CHEMBL3719102


 26 29  0  0  0  0  0  0  0  0999 V2000
   12.3994   13.1755    1.8780 N   0  0  0  0  0  0  0  0  0  0  0  0
   11.8160   10.8386    2.0682 N   0  0  0  0  0  0  0  0  0  0  0  0
   13.5043    9.5250    3.1332 N   0  0  0  0  0  0  0  0  0  0  0  0
   11.6015   12.1075    1.6903 C   0  0  0  0  0  0  0  0  0  0  0  0
   13.0107   10.7076    2.6603 C   0  0  0  0  0  0  0  0  0  0  0  0
   13.9417   11.7051    2.9057 C   0  0  0  0  0  0  0  0  0  0  0  0
   13.5792   13.0233    2.5382 C   0  0  0  0  0  0  0  0  0  0  0  0
   15.0888   11.0505    3.4705 C   0  0  0  0  0  0  0  0  0  0  0  0
   14.7683    9.7024    3.6445 C   0  0  0  0  0  0  0  0  0  0  0  0
   15.6482    8.7825    4.2247 C   0  0  0  0  0  0  0  0  0  0  0  0
   16.8972    9.2573    4.6451 C   0  0  0  0  0  0  0  0  0  0  0  0
   17.2725   10.5928    4.4623 C   0  0  0  0  0  0  0  0  0  0  0  0
   16.3823   11.4798    3.8427 C   0  0  0  0  0  0  0  0  0  0  0  0
   13.0032    8.6510    3.0859 H   0  0  0  0  0  0  0  0  0  0  0  0
   14.3464   14.1450    2.7987 N   0  0  0  0  0  0  0  0  0  0  0  0
   15.6664   14.2872    2.1972 C   0  0  0  0  0  0  0  0  0  0  0  0
   16.7638   14.2065    3.2534 C   0  0  0  0  0  0  0  0  0  0  0  0
   16.4952   15.1773    4.3996 C   0  0  0  0  0  0  0  0  0  0  0  0
   15.1098   14.9559    5.0235 C   0  0  0  0  0  0  0  0  0  0  0  0
   14.0144   14.9842    3.9458 C   0  0  0  0  0  0  0  0  0  0  0  0
   15.0666   13.6731    5.8564 C   0  0  0  0  0  0  0  0  0  0  0  0
   18.6933   12.0706    5.8242 N   0  0  0  0  0  0  0  0  0  0  0  0
   18.6161   11.0226    4.9481 C   0  0  0  0  0  0  0  0  0  0  0  0
   19.6389   10.4448    4.5974 O   0  0  0  0  0  0  0  0  0  0  0  0
   19.6183   12.3286    6.1432 H   0  0  0  0  0  0  0  0  0  0  0  0
   17.9108   12.5875    6.1902 H   0  0  0  0  0  0  0  0  0  0  0  0
  3  5  1  0  0  0
  4  2  2  0  0  0
  5  6  2  0  0  0
  6  8  1  0  0  0
  7 15  1  0  0  0
  7  1  2  0  0  0
 16 15  1  0  0  0
 16 17  1  0  0  0
 17 18  1  0  0  0
 18 19  1  0  0  0
 19 20  1  0  0  0
 19 21  1  0  0  0
 20 15  1  0  0  0
  9  3  1  0  0  0
  9 10  2  0  0  0
 11 12  2  0  0  0
 12 23  1  0  0  0
 13  8  2  0  0  0
 23 22  1  0  0  0
  4  1  1  0  0  0
  5  2  1  0  0  0
  6  7  1  0  0  0
  8  9  1  0  0  0
 10 11  1  0  0  0
 12 13  1  0  0  0
 23 24  2  0  0  0
  3 14  1  0  0  0
 22 25  1  0  0  0
 22 26  1  0  0  0
M  END
> <minimizedAffinity>
-8.40564

$$$$
CHEMBL3719102


 26 29  0  0  0  0  0  0  0  0999 V2000
   16.9806   16.1173    6.1056 N   0  0  0  0  0  0  0  0  0  0  0  0
   17.9602   13.9211    6.3400 N   0  0  0  0  0  0  0  0  0  0  0  0
   16.7656   12.2209    5.1601 N   0  0  0  0  0  0  0  0  0  0  0  0
   17.8836   15.2385    6.5799 C   0  0  0  0  0  0  0  0  0  0  0  0
   16.9523   13.5146    5.5564 C   0  0  0  0  0  0  0  0  0  0  0  0
   15.9444   14.2942    5.0102 C   0  0  0  0  0  0  0  0  0  0  0  0
   16.0047   15.6862    5.2614 C   0  0  0  0  0  0  0  0  0  0  0  0
   15.0612   13.3872    4.3317 C   0  0  0  0  0  0  0  0  0  0  0  0
   15.6242   12.1110    4.4013 C   0  0  0  0  0  0  0  0  0  0  0  0
   15.0448   10.9924    3.7931 C   0  0  0  0  0  0  0  0  0  0  0  0
   13.8511   11.1850    3.0861 C   0  0  0  0  0  0  0  0  0  0  0  0
   13.2353   12.4396    3.0164 C   0  0  0  0  0  0  0  0  0  0  0  0
   13.8217   13.5318    3.6692 C   0  0  0  0  0  0  0  0  0  0  0  0
   17.3801   11.4633    5.4162 H   0  0  0  0  0  0  0  0  0  0  0  0
   15.1379   16.6161    4.7149 N   0  0  0  0  0  0  0  0  0  0  0  0
   15.6597   17.7816    4.0124 C   0  0  0  0  0  0  0  0  0  0  0  0
   15.3665   19.0649    4.7827 C   0  0  0  0  0  0  0  0  0  0  0  0
   13.8863   19.1653    5.1393 C   0  0  0  0  0  0  0  0  0  0  0  0
   13.4000   17.9320    5.9139 C   0  0  0  0  0  0  0  0  0  0  0  0
   13.7473   16.6399    5.1577 C   0  0  0  0  0  0  0  0  0  0  0  0
   13.9333   17.9223    7.3480 C   0  0  0  0  0  0  0  0  0  0  0  0
   11.5845   13.8044    1.8041 N   0  0  0  0  0  0  0  0  0  0  0  0
   11.9711   12.5644    2.2339 C   0  0  0  0  0  0  0  0  0  0  0  0
   11.2922   11.5830    1.9532 O   0  0  0  0  0  0  0  0  0  0  0  0
   10.7290   13.8522    1.2660 H   0  0  0  0  0  0  0  0  0  0  0  0
   12.0880   14.6621    1.9601 H   0  0  0  0  0  0  0  0  0  0  0  0
  3  5  1  0  0  0
  4  2  2  0  0  0
  5  6  2  0  0  0
  6  8  1  0  0  0
  7 15  1  0  0  0
  7  1  2  0  0  0
 16 15  1  0  0  0
 16 17  1  0  0  0
 17 18  1  0  0  0
 18 19  1  0  0  0
 19 20  1  0  0  0
 19 21  1  0  0  0
 20 15  1  0  0  0
  9  3  1  0  0  0
  9 10  2  0  0  0
 11 12  2  0  0  0
 12 23  1  0  0  0
 13  8  2  0  0  0
 23 22  1  0  0  0
  4  1  1  0  0  0
  5  2  1  0  0  0
  6  7  1  0  0  0
  8  9  1  0  0  0
 10 11  1  0  0  0
 12 13  1  0  0  0
 23 24  2  0  0  0
  3 14  1  0  0  0
 22 25  1  0  0  0
 22 26  1  0  0  0
M  END
> <minimizedAffinity>
-8.28820

$$$$
CHEMBL3719102


 26 29  0  0  0  0  0  0  0  0999 V2000
   17.6411   11.2206    4.8965 N   0  0  0  0  0  0  0  0  0  0  0  0
   17.1285    8.8595    4.9128 N   0  0  0  0  0  0  0  0  0  0  0  0
   15.1086    8.3213    3.7550 N   0  0  0  0  0  0  0  0  0  0  0  0
   17.8616    9.9359    5.2334 C   0  0  0  0  0  0  0  0  0  0  0  0
   16.0454    9.2076    4.2051 C   0  0  0  0  0  0  0  0  0  0  0  0
   15.6786   10.4820    3.8009 C   0  0  0  0  0  0  0  0  0  0  0  0
   16.5664   11.5362    4.1241 C   0  0  0  0  0  0  0  0  0  0  0  0
   14.4018   10.3449    3.1574 C   0  0  0  0  0  0  0  0  0  0  0  0
   14.0962    8.9833    3.1013 C   0  0  0  0  0  0  0  0  0  0  0  0
   12.9399    8.4903    2.4873 C   0  0  0  0  0  0  0  0  0  0  0  0
   12.0677    9.4202    1.9072 C   0  0  0  0  0  0  0  0  0  0  0  0
   12.3182   10.7957    1.9669 C   0  0  0  0  0  0  0  0  0  0  0  0
   13.4662   11.2588    2.6231 C   0  0  0  0  0  0  0  0  0  0  0  0
   15.1609    7.3259    3.9090 H   0  0  0  0  0  0  0  0  0  0  0  0
   16.4024   12.8479    3.7149 N   0  0  0  0  0  0  0  0  0  0  0  0
   17.5578   13.7272    3.5887 C   0  0  0  0  0  0  0  0  0  0  0  0
   17.5246   14.8332    4.6384 C   0  0  0  0  0  0  0  0  0  0  0  0
   16.1842   15.5624    4.6256 C   0  0  0  0  0  0  0  0  0  0  0  0
   15.0054   14.5948    4.8042 C   0  0  0  0  0  0  0  0  0  0  0  0
   15.0756   13.4529    3.7780 C   0  0  0  0  0  0  0  0  0  0  0  0
   14.9171   14.0750    6.2406 C   0  0  0  0  0  0  0  0  0  0  0  0
   11.5791   13.0673    1.3745 N   0  0  0  0  0  0  0  0  0  0  0  0
   11.3460   11.7204    1.3146 C   0  0  0  0  0  0  0  0  0  0  0  0
   10.3649   11.2979    0.7130 O   0  0  0  0  0  0  0  0  0  0  0  0
   10.9070   13.6655    0.9117 H   0  0  0  0  0  0  0  0  0  0  0  0
   12.3684   13.5063    1.8193 H   0  0  0  0  0  0  0  0  0  0  0  0
  3  5  1  0  0  0
  4  2  2  0  0  0
  5  6  2  0  0  0
  6  8  1  0  0  0
  7 15  1  0  0  0
  7  1  2  0  0  0
 16 15  1  0  0  0
 16 17  1  0  0  0
 17 18  1  0  0  0
 18 19  1  0  0  0
 19 20  1  0  0  0
 19 21  1  0  0  0
 20 15  1  0  0  0
  9  3  1  0  0  0
  9 10  2  0  0  0
 11 12  2  0  0  0
 12 23  1  0  0  0
 13  8  2  0  0  0
 23 22  1  0  0  0
  4  1  1  0  0  0
  5  2  1  0  0  0
  6  7  1  0  0  0
  8  9  1  0  0  0
 10 11  1  0  0  0
 12 13  1  0  0  0
 23 24  2  0  0  0
  3 14  1  0  0  0
 22 25  1  0  0  0
 22 26  1  0  0  0
M  END
> <minimizedAffinity>
-8.27319

$$$$
CHEMBL3719102


 26 29  0  0  0  0  0  0  0  0999 V2000
   18.9103   11.1523    5.6652 N   0  0  0  0  0  0  0  0  0  0  0  0
   17.8549    9.0305    5.1940 N   0  0  0  0  0  0  0  0  0  0  0  0
   15.7436    9.2466    4.0959 N   0  0  0  0  0  0  0  0  0  0  0  0
   18.8274    9.8088    5.6915 C   0  0  0  0  0  0  0  0  0  0  0  0
   16.8715    9.7689    4.6621 C   0  0  0  0  0  0  0  0  0  0  0  0
   16.8086   11.1513    4.5789 C   0  0  0  0  0  0  0  0  0  0  0  0
   17.9263   11.8731    5.0626 C   0  0  0  0  0  0  0  0  0  0  0  0
   15.5237   11.4594    4.0157 C   0  0  0  0  0  0  0  0  0  0  0  0
   14.9041   10.2534    3.6810 C   0  0  0  0  0  0  0  0  0  0  0  0
   13.6527   10.1907    3.0588 C   0  0  0  0  0  0  0  0  0  0  0  0
   13.0142   11.4023    2.7648 C   0  0  0  0  0  0  0  0  0  0  0  0
   13.5835   12.6330    3.1101 C   0  0  0  0  0  0  0  0  0  0  0  0
   14.8205   12.6594    3.7674 C   0  0  0  0  0  0  0  0  0  0  0  0
   15.5622    8.2573    4.0207 H   0  0  0  0  0  0  0  0  0  0  0  0
   18.0690   13.2462    4.9680 N   0  0  0  0  0  0  0  0  0  0  0  0
   19.0544   13.8208    4.0609 C   0  0  0  0  0  0  0  0  0  0  0  0
   20.1788   14.5047    4.8317 C   0  0  0  0  0  0  0  0  0  0  0  0
   19.6227   15.4933    5.8524 C   0  0  0  0  0  0  0  0  0  0  0  0
   18.6228   14.8265    6.8081 C   0  0  0  0  0  0  0  0  0  0  0  0
   17.5230   14.0934    6.0238 C   0  0  0  0  0  0  0  0  0  0  0  0
   19.3278   13.9082    7.8084 C   0  0  0  0  0  0  0  0  0  0  0  0
   13.5631   14.9987    2.4316 N   0  0  0  0  0  0  0  0  0  0  0  0
   12.8451   13.8790    2.7520 C   0  0  0  0  0  0  0  0  0  0  0  0
   11.6200   13.9102    2.7182 O   0  0  0  0  0  0  0  0  0  0  0  0
   13.0318   15.8229    2.1820 H   0  0  0  0  0  0  0  0  0  0  0  0
   14.5674   15.0630    2.4039 H   0  0  0  0  0  0  0  0  0  0  0  0
  3  5  1  0  0  0
  4  2  2  0  0  0
  5  6  2  0  0  0
  6  8  1  0  0  0
  7 15  1  0  0  0
  7  1  2  0  0  0
 16 15  1  0  0  0
 16 17  1  0  0  0
 17 18  1  0  0  0
 18 19  1  0  0  0
 19 20  1  0  0  0
 19 21  1  0  0  0
 20 15  1  0  0  0
  9  3  1  0  0  0
  9 10  2  0  0  0
 11 12  2  0  0  0
 12 23  1  0  0  0
 13  8  2  0  0  0
 23 22  1  0  0  0
  4  1  1  0  0  0
  5  2  1  0  0  0
  6  7  1  0  0  0
  8  9  1  0  0  0
 10 11  1  0  0  0
 12 13  1  0  0  0
 23 24  2  0  0  0
  3 14  1  0  0  0
 22 25  1  0  0  0
 22 26  1  0  0  0
M  END
> <minimizedAffinity>
-7.79637

$$$$
CHEMBL3719102


 26 29  0  0  0  0  0  0  0  0999 V2000
   17.6837   13.6226    4.6358 N   0  0  0  0  0  0  0  0  0  0  0  0
   19.4735   15.1709    5.1227 N   0  0  0  0  0  0  0  0  0  0  0  0
   18.7031   17.3615    5.6862 N   0  0  0  0  0  0  0  0  0  0  0  0
   18.9759   13.9791    4.7608 C   0  0  0  0  0  0  0  0  0  0  0  0
   18.4929   16.0612    5.3247 C   0  0  0  0  0  0  0  0  0  0  0  0
   17.1273   15.8473    5.2174 C   0  0  0  0  0  0  0  0  0  0  0  0
   16.7082   14.5309    4.9083 C   0  0  0  0  0  0  0  0  0  0  0  0
   16.5049   17.1231    5.4365 C   0  0  0  0  0  0  0  0  0  0  0  0
   17.5075   18.0350    5.7735 C   0  0  0  0  0  0  0  0  0  0  0  0
   17.2406   19.3679    6.1038 C   0  0  0  0  0  0  0  0  0  0  0  0
   15.9026   19.7824    6.0932 C   0  0  0  0  0  0  0  0  0  0  0  0
   14.8688   18.9114    5.7317 C   0  0  0  0  0  0  0  0  0  0  0  0
   15.1742   17.5930    5.3689 C   0  0  0  0  0  0  0  0  0  0  0  0
   19.6173   17.7577    5.8428 H   0  0  0  0  0  0  0  0  0  0  0  0
   15.3865   14.1241    4.8590 N   0  0  0  0  0  0  0  0  0  0  0  0
   15.0218   12.7661    5.2426 C   0  0  0  0  0  0  0  0  0  0  0  0
   14.5364   11.9659    4.0384 C   0  0  0  0  0  0  0  0  0  0  0  0
   13.4398   12.7153    3.2871 C   0  0  0  0  0  0  0  0  0  0  0  0
   13.8913   14.1224    2.8704 C   0  0  0  0  0  0  0  0  0  0  0  0
   14.4300   14.9037    4.0794 C   0  0  0  0  0  0  0  0  0  0  0  0
   14.8993   14.0722    1.7204 C   0  0  0  0  0  0  0  0  0  0  0  0
   12.6384   19.0229    6.7662 N   0  0  0  0  0  0  0  0  0  0  0  0
   13.4688   19.4266    5.7566 C   0  0  0  0  0  0  0  0  0  0  0  0
   13.0612   20.2144    4.9104 O   0  0  0  0  0  0  0  0  0  0  0  0
   11.6996   19.4003    6.7602 H   0  0  0  0  0  0  0  0  0  0  0  0
   12.8891   18.4034    7.5191 H   0  0  0  0  0  0  0  0  0  0  0  0
  3  5  1  0  0  0
  4  2  2  0  0  0
  5  6  2  0  0  0
  6  8  1  0  0  0
  7 15  1  0  0  0
  7  1  2  0  0  0
 16 15  1  0  0  0
 16 17  1  0  0  0
 17 18  1  0  0  0
 18 19  1  0  0  0
 19 20  1  0  0  0
 19 21  1  0  0  0
 20 15  1  0  0  0
  9  3  1  0  0  0
  9 10  2  0  0  0
 11 12  2  0  0  0
 12 23  1  0  0  0
 13  8  2  0  0  0
 23 22  1  0  0  0
  4  1  1  0  0  0
  5  2  1  0  0  0
  6  7  1  0  0  0
  8  9  1  0  0  0
 10 11  1  0  0  0
 12 13  1  0  0  0
 23 24  2  0  0  0
  3 14  1  0  0  0
 22 25  1  0  0  0
 22 26  1  0  0  0
M  END
> <minimizedAffinity>
-7.77001

$$$$
CHEMBL3719102


 26 29  0  0  0  0  0  0  0  0999 V2000
   15.6597   12.2062    3.7335 N   0  0  0  0  0  0  0  0  0  0  0  0
   17.9748   12.6812    4.2355 N   0  0  0  0  0  0  0  0  0  0  0  0
   19.2054   10.7568    4.9372 N   0  0  0  0  0  0  0  0  0  0  0  0
   16.7284   13.0138    3.8685 C   0  0  0  0  0  0  0  0  0  0  0  0
   18.0609   11.3748    4.5203 C   0  0  0  0  0  0  0  0  0  0  0  0
   17.0497   10.4293    4.4461 C   0  0  0  0  0  0  0  0  0  0  0  0
   15.7926   10.8729    3.9694 C   0  0  0  0  0  0  0  0  0  0  0  0
   17.6121    9.2034    4.9399 C   0  0  0  0  0  0  0  0  0  0  0  0
   18.9675    9.4266    5.1918 C   0  0  0  0  0  0  0  0  0  0  0  0
   19.8320    8.4206    5.6362 C   0  0  0  0  0  0  0  0  0  0  0  0
   19.2939    7.1413    5.8259 C   0  0  0  0  0  0  0  0  0  0  0  0
   17.9355    6.8795    5.6158 C   0  0  0  0  0  0  0  0  0  0  0  0
   17.0888    7.9187    5.2079 C   0  0  0  0  0  0  0  0  0  0  0  0
   20.0870   11.2324    5.0545 H   0  0  0  0  0  0  0  0  0  0  0  0
   14.7075   10.0448    3.7426 N   0  0  0  0  0  0  0  0  0  0  0  0
   14.8266    8.9114    2.8339 C   0  0  0  0  0  0  0  0  0  0  0  0
   13.9833    9.1204    1.5804 C   0  0  0  0  0  0  0  0  0  0  0  0
   12.5446    9.4800    1.9402 C   0  0  0  0  0  0  0  0  0  0  0  0
   12.4754   10.7047    2.8638 C   0  0  0  0  0  0  0  0  0  0  0  0
   13.3703   10.5095    4.0980 C   0  0  0  0  0  0  0  0  0  0  0  0
   12.8040   11.9958    2.1114 C   0  0  0  0  0  0  0  0  0  0  0  0
   17.5776    4.5804    4.8139 N   0  0  0  0  0  0  0  0  0  0  0  0
   17.4423    5.4876    5.8290 C   0  0  0  0  0  0  0  0  0  0  0  0
   16.9442    5.1408    6.8941 O   0  0  0  0  0  0  0  0  0  0  0  0
   17.2439    3.6426    4.9956 H   0  0  0  0  0  0  0  0  0  0  0  0
   17.9972    4.7624    3.9171 H   0  0  0  0  0  0  0  0  0  0  0  0
  3  5  1  0  0  0
  4  2  2  0  0  0
  5  6  2  0  0  0
  6  8  1  0  0  0
  7 15  1  0  0  0
  7  1  2  0  0  0
 16 15  1  0  0  0
 16 17  1  0  0  0
 17 18  1  0  0  0
 18 19  1  0  0  0
 19 20  1  0  0  0
 19 21  1  0  0  0
 20 15  1  0  0  0
  9  3  1  0  0  0
  9 10  2  0  0  0
 11 12  2  0  0  0
 12 23  1  0  0  0
 13  8  2  0  0  0
 23 22  1  0  0  0
  4  1  1  0  0  0
  5  2  1  0  0  0
  6  7  1  0  0  0
  8  9  1  0  0  0
 10 11  1  0  0  0
 12 13  1  0  0  0
 23 24  2  0  0  0
  3 14  1  0  0  0
 22 25  1  0  0  0
 22 26  1  0  0  0
M  END
> <minimizedAffinity>
-7.74790

$$$$
CHEMBL3719102


 26 29  0  0  0  0  0  0  0  0999 V2000
   16.6736   11.6568    4.2751 N   0  0  0  0  0  0  0  0  0  0  0  0
   18.6686   12.5508    5.3038 N   0  0  0  0  0  0  0  0  0  0  0  0
   18.3380   14.6952    6.3049 N   0  0  0  0  0  0  0  0  0  0  0  0
   17.9765   11.6326    4.6133 C   0  0  0  0  0  0  0  0  0  0  0  0
   17.8972   13.6004    5.6173 C   0  0  0  0  0  0  0  0  0  0  0  0
   16.5535   13.7742    5.3235 C   0  0  0  0  0  0  0  0  0  0  0  0
   15.8999   12.7072    4.6613 C   0  0  0  0  0  0  0  0  0  0  0  0
   16.2112   15.0911    5.7838 C   0  0  0  0  0  0  0  0  0  0  0  0
   17.3288   15.6203    6.4330 C   0  0  0  0  0  0  0  0  0  0  0  0
   17.3235   16.8756    7.0503 C   0  0  0  0  0  0  0  0  0  0  0  0
   16.1340   17.6140    7.0064 C   0  0  0  0  0  0  0  0  0  0  0  0
   14.9997   17.1367    6.3404 C   0  0  0  0  0  0  0  0  0  0  0  0
   15.0504   15.8920    5.6991 C   0  0  0  0  0  0  0  0  0  0  0  0
   19.2817   14.7993    6.6451 H   0  0  0  0  0  0  0  0  0  0  0  0
   14.5453   12.6756    4.3808 N   0  0  0  0  0  0  0  0  0  0  0  0
   13.8789   11.4055    4.1222 C   0  0  0  0  0  0  0  0  0  0  0  0
   13.4241   11.3086    2.6697 C   0  0  0  0  0  0  0  0  0  0  0  0
   12.6066   12.5326    2.2674 C   0  0  0  0  0  0  0  0  0  0  0  0
   13.3715   13.8396    2.5215 C   0  0  0  0  0  0  0  0  0  0  0  0
   13.8737   13.9055    3.9726 C   0  0  0  0  0  0  0  0  0  0  0  0
   14.5028   14.0349    1.5100 C   0  0  0  0  0  0  0  0  0  0  0  0
   13.2019   18.3018    7.5518 N   0  0  0  0  0  0  0  0  0  0  0  0
   13.7681   17.9787    6.3489 C   0  0  0  0  0  0  0  0  0  0  0  0
   13.2731   18.4001    5.3095 O   0  0  0  0  0  0  0  0  0  0  0  0
   12.3748   18.8839    7.5226 H   0  0  0  0  0  0  0  0  0  0  0  0
   13.5498   18.0278    8.4559 H   0  0  0  0  0  0  0  0  0  0  0  0
  3  5  1  0  0  0
  4  2  2  0  0  0
  5  6  2  0  0  0
  6  8  1  0  0  0
  7 15  1  0  0  0
  7  1  2  0  0  0
 16 15  1  0  0  0
 16 17  1  0  0  0
 17 18  1  0  0  0
 18 19  1  0  0  0
 19 20  1  0  0  0
 19 21  1  0  0  0
 20 15  1  0  0  0
  9  3  1  0  0  0
  9 10  2  0  0  0
 11 12  2  0  0  0
 12 23  1  0  0  0
 13  8  2  0  0  0
 23 22  1  0  0  0
  4  1  1  0  0  0
  5  2  1  0  0  0
  6  7  1  0  0  0
  8  9  1  0  0  0
 10 11  1  0  0  0
 12 13  1  0  0  0
 23 24  2  0  0  0
  3 14  1  0  0  0
 22 25  1  0  0  0
 22 26  1  0  0  0
M  END
> <minimizedAffinity>
-7.72306

$$$$
CHEMBL3715588


 25 28  0  0  0  0  0  0  0  0999 V2000
   17.8059   10.9692    5.2678 N   0  0  0  0  0  0  0  0  0  0  0  0
   17.3649    8.6230    4.8878 N   0  0  0  0  0  0  0  0  0  0  0  0
   15.3084    8.2231    3.7338 N   0  0  0  0  0  0  0  0  0  0  0  0
   18.0979    9.6559    5.3307 C   0  0  0  0  0  0  0  0  0  0  0  0
   16.2401    9.0487    4.2969 C   0  0  0  0  0  0  0  0  0  0  0  0
   15.8145   10.3590    4.1471 C   0  0  0  0  0  0  0  0  0  0  0  0
   16.6300   11.3662    4.7099 C   0  0  0  0  0  0  0  0  0  0  0  0
   14.6029   10.3044    3.3834 C   0  0  0  0  0  0  0  0  0  0  0  0
   14.2904    8.9598    3.1743 C   0  0  0  0  0  0  0  0  0  0  0  0
   13.1406    8.5480    2.4922 C   0  0  0  0  0  0  0  0  0  0  0  0
   12.2794    9.5451    2.0147 C   0  0  0  0  0  0  0  0  0  0  0  0
   12.5680   10.9046    2.1804 C   0  0  0  0  0  0  0  0  0  0  0  0
   13.7468   11.2831    2.8344 C   0  0  0  0  0  0  0  0  0  0  0  0
   15.3859    7.2175    3.7224 H   0  0  0  0  0  0  0  0  0  0  0  0
   16.3032   12.7158    4.7153 N   0  0  0  0  0  0  0  0  0  0  0  0
   16.6668   13.5333    3.5606 C   0  0  0  0  0  0  0  0  0  0  0  0
   15.4316   14.1280    2.8887 C   0  0  0  0  0  0  0  0  0  0  0  0
   14.4887   14.8352    3.8671 C   0  0  0  0  0  0  0  0  0  0  0  0
   14.8552   14.5925    5.3291 C   0  0  0  0  0  0  0  0  0  0  0  0
   15.1800   13.1190    5.5550 C   0  0  0  0  0  0  0  0  0  0  0  0
   11.8097   13.2309    1.9203 N   0  0  0  0  0  0  0  0  0  0  0  0
   11.5965   11.9061    1.6531 C   0  0  0  0  0  0  0  0  0  0  0  0
   10.6097   11.5642    1.0106 O   0  0  0  0  0  0  0  0  0  0  0  0
   11.1271   13.8839    1.5579 H   0  0  0  0  0  0  0  0  0  0  0  0
   12.5729   13.6040    2.4610 H   0  0  0  0  0  0  0  0  0  0  0  0
  3  5  1  0  0  0
  4  2  2  0  0  0
  5  6  2  0  0  0
  6  8  1  0  0  0
  7 15  1  0  0  0
  7  1  2  0  0  0
 16 15  1  0  0  0
 16 17  1  0  0  0
 17 18  1  0  0  0
 18 19  1  0  0  0
 19 20  1  0  0  0
 20 15  1  0  0  0
  9  3  1  0  0  0
  9 10  2  0  0  0
 11 12  2  0  0  0
 12 22  1  0  0  0
 13  8  2  0  0  0
 22 21  1  0  0  0
  4  1  1  0  0  0
  5  2  1  0  0  0
  6  7  1  0  0  0
  8  9  1  0  0  0
 10 11  1  0  0  0
 12 13  1  0  0  0
 22 23  2  0  0  0
  3 14  1  0  0  0
 21 24  1  0  0  0
 21 25  1  0  0  0
M  END
> <minimizedAffinity>
-9.18317

$$$$
CHEMBL3715588


 25 28  0  0  0  0  0  0  0  0999 V2000
   12.6901   14.0666    2.8338 N   0  0  0  0  0  0  0  0  0  0  0  0
   11.5767   12.0549    2.0875 N   0  0  0  0  0  0  0  0  0  0  0  0
   12.8258   10.0640    2.5309 N   0  0  0  0  0  0  0  0  0  0  0  0
   11.6732   13.3794    2.2791 C   0  0  0  0  0  0  0  0  0  0  0  0
   12.6540   11.4188    2.5677 C   0  0  0  0  0  0  0  0  0  0  0  0
   13.7646   11.9868    3.1714 C   0  0  0  0  0  0  0  0  0  0  0  0
   13.7941   13.3965    3.2625 C   0  0  0  0  0  0  0  0  0  0  0  0
   14.6003   10.8978    3.5835 C   0  0  0  0  0  0  0  0  0  0  0  0
   14.0104    9.7141    3.1364 C   0  0  0  0  0  0  0  0  0  0  0  0
   14.5908    8.4572    3.3370 C   0  0  0  0  0  0  0  0  0  0  0  0
   15.8184    8.4115    4.0115 C   0  0  0  0  0  0  0  0  0  0  0  0
   16.4313    9.5717    4.4986 C   0  0  0  0  0  0  0  0  0  0  0  0
   15.8047   10.8102    4.3143 C   0  0  0  0  0  0  0  0  0  0  0  0
   12.1557    9.4256    2.1300 H   0  0  0  0  0  0  0  0  0  0  0  0
   14.8681   14.1189    3.7654 N   0  0  0  0  0  0  0  0  0  0  0  0
   15.5816   15.0317    2.8758 C   0  0  0  0  0  0  0  0  0  0  0  0
   15.4990   16.4724    3.3742 C   0  0  0  0  0  0  0  0  0  0  0  0
   15.8841   16.6284    4.8486 C   0  0  0  0  0  0  0  0  0  0  0  0
   16.0363   15.2914    5.5697 C   0  0  0  0  0  0  0  0  0  0  0  0
   14.8848   14.3597    5.2045 C   0  0  0  0  0  0  0  0  0  0  0  0
   17.7530    9.0422    6.5054 N   0  0  0  0  0  0  0  0  0  0  0  0
   17.7429    9.4422    5.1970 C   0  0  0  0  0  0  0  0  0  0  0  0
   18.7983    9.7063    4.6315 O   0  0  0  0  0  0  0  0  0  0  0  0
   18.6575    8.9745    6.9537 H   0  0  0  0  0  0  0  0  0  0  0  0
   16.9391    8.8312    7.0598 H   0  0  0  0  0  0  0  0  0  0  0  0
  3  5  1  0  0  0
  4  2  2  0  0  0
  5  6  2  0  0  0
  6  8  1  0  0  0
  7 15  1  0  0  0
  7  1  2  0  0  0
 16 15  1  0  0  0
 16 17  1  0  0  0
 17 18  1  0  0  0
 18 19  1  0  0  0
 19 20  1  0  0  0
 20 15  1  0  0  0
  9  3  1  0  0  0
  9 10  2  0  0  0
 11 12  2  0  0  0
 12 22  1  0  0  0
 13  8  2  0  0  0
 22 21  1  0  0  0
  4  1  1  0  0  0
  5  2  1  0  0  0
  6  7  1  0  0  0
  8  9  1  0  0  0
 10 11  1  0  0  0
 12 13  1  0  0  0
 22 23  2  0  0  0
  3 14  1  0  0  0
 21 24  1  0  0  0
 21 25  1  0  0  0
M  END
> <minimizedAffinity>
-9.13949

$$$$
CHEMBL3715588


 25 28  0  0  0  0  0  0  0  0999 V2000
   16.5715    9.6677    4.5264 N   0  0  0  0  0  0  0  0  0  0  0  0
   14.8300    8.3232    3.5247 N   0  0  0  0  0  0  0  0  0  0  0  0
   12.9926    9.6160    2.7042 N   0  0  0  0  0  0  0  0  0  0  0  0
   16.0166    8.5086    4.1231 C   0  0  0  0  0  0  0  0  0  0  0  0
   14.2090    9.4918    3.3136 C   0  0  0  0  0  0  0  0  0  0  0  0
   14.6589   10.7561    3.6596 C   0  0  0  0  0  0  0  0  0  0  0  0
   15.8911   10.8323    4.3467 C   0  0  0  0  0  0  0  0  0  0  0  0
   13.6880   11.6814    3.1543 C   0  0  0  0  0  0  0  0  0  0  0  0
   12.6419   10.9420    2.5993 C   0  0  0  0  0  0  0  0  0  0  0  0
   11.5034   11.5390    2.0478 C   0  0  0  0  0  0  0  0  0  0  0  0
   11.4307   12.9383    2.0712 C   0  0  0  0  0  0  0  0  0  0  0  0
   12.4684   13.7180    2.5947 C   0  0  0  0  0  0  0  0  0  0  0  0
   13.6113   13.0899    3.1045 C   0  0  0  0  0  0  0  0  0  0  0  0
   12.4532    8.8333    2.3669 H   0  0  0  0  0  0  0  0  0  0  0  0
   16.4371   12.0136    4.8312 N   0  0  0  0  0  0  0  0  0  0  0  0
   17.5668   12.6101    4.1229 C   0  0  0  0  0  0  0  0  0  0  0  0
   17.2228   14.0022    3.5990 C   0  0  0  0  0  0  0  0  0  0  0  0
   16.6148   14.9195    4.6645 C   0  0  0  0  0  0  0  0  0  0  0  0
   16.2601   14.1824    5.9537 C   0  0  0  0  0  0  0  0  0  0  0  0
   15.5636   12.8633    5.6339 C   0  0  0  0  0  0  0  0  0  0  0  0
   11.1237   15.7358    2.1764 N   0  0  0  0  0  0  0  0  0  0  0  0
   12.3121   15.2014    2.5936 C   0  0  0  0  0  0  0  0  0  0  0  0
   13.2276   15.9420    2.9353 O   0  0  0  0  0  0  0  0  0  0  0  0
   11.0531   16.7451    2.1772 H   0  0  0  0  0  0  0  0  0  0  0  0
   10.3274   15.2115    1.8519 H   0  0  0  0  0  0  0  0  0  0  0  0
  3  5  1  0  0  0
  4  2  2  0  0  0
  5  6  2  0  0  0
  6  8  1  0  0  0
  7 15  1  0  0  0
  7  1  2  0  0  0
 16 15  1  0  0  0
 16 17  1  0  0  0
 17 18  1  0  0  0
 18 19  1  0  0  0
 19 20  1  0  0  0
 20 15  1  0  0  0
  9  3  1  0  0  0
  9 10  2  0  0  0
 11 12  2  0  0  0
 12 22  1  0  0  0
 13  8  2  0  0  0
 22 21  1  0  0  0
  4  1  1  0  0  0
  5  2  1  0  0  0
  6  7  1  0  0  0
  8  9  1  0  0  0
 10 11  1  0  0  0
 12 13  1  0  0  0
 22 23  2  0  0  0
  3 14  1  0  0  0
 21 24  1  0  0  0
 21 25  1  0  0  0
M  END
> <minimizedAffinity>
-8.59778

$$$$
CHEMBL3715588


 25 28  0  0  0  0  0  0  0  0999 V2000
   13.0426   11.8290    2.5876 N   0  0  0  0  0  0  0  0  0  0  0  0
   12.6373    9.5277    1.9682 N   0  0  0  0  0  0  0  0  0  0  0  0
   14.2419    8.0071    2.8811 N   0  0  0  0  0  0  0  0  0  0  0  0
   12.3572   10.8399    1.9827 C   0  0  0  0  0  0  0  0  0  0  0  0
   13.7290    9.2600    2.6977 C   0  0  0  0  0  0  0  0  0  0  0  0
   14.5241   10.1653    3.3822 C   0  0  0  0  0  0  0  0  0  0  0  0
   14.1781   11.5311    3.2758 C   0  0  0  0  0  0  0  0  0  0  0  0
   15.5143    9.3915    4.0713 C   0  0  0  0  0  0  0  0  0  0  0  0
   15.3392    8.0545    3.7093 C   0  0  0  0  0  0  0  0  0  0  0  0
   16.1698    7.0299    4.1754 C   0  0  0  0  0  0  0  0  0  0  0  0
   17.2177    7.3867    5.0346 C   0  0  0  0  0  0  0  0  0  0  0  0
   17.4131    8.7112    5.4426 C   0  0  0  0  0  0  0  0  0  0  0  0
   16.5402    9.7072    4.9878 C   0  0  0  0  0  0  0  0  0  0  0  0
   13.8438    7.1744    2.4742 H   0  0  0  0  0  0  0  0  0  0  0  0
   14.9186   12.5646    3.8341 N   0  0  0  0  0  0  0  0  0  0  0  0
   15.3430   13.6695    2.9781 C   0  0  0  0  0  0  0  0  0  0  0  0
   14.7569   14.9973    3.4518 C   0  0  0  0  0  0  0  0  0  0  0  0
   14.9761   15.2602    4.9448 C   0  0  0  0  0  0  0  0  0  0  0  0
   15.5178   14.0435    5.6912 C   0  0  0  0  0  0  0  0  0  0  0  0
   14.7651   12.7857    5.2683 C   0  0  0  0  0  0  0  0  0  0  0  0
   19.5264    9.8777    5.9196 N   0  0  0  0  0  0  0  0  0  0  0  0
   18.5574    9.0132    6.3504 C   0  0  0  0  0  0  0  0  0  0  0  0
   18.6545    8.4888    7.4545 O   0  0  0  0  0  0  0  0  0  0  0  0
   20.2946   10.0533    6.5542 H   0  0  0  0  0  0  0  0  0  0  0  0
   19.5477   10.3336    5.0219 H   0  0  0  0  0  0  0  0  0  0  0  0
  3  5  1  0  0  0
  4  2  2  0  0  0
  5  6  2  0  0  0
  6  8  1  0  0  0
  7 15  1  0  0  0
  7  1  2  0  0  0
 16 15  1  0  0  0
 16 17  1  0  0  0
 17 18  1  0  0  0
 18 19  1  0  0  0
 19 20  1  0  0  0
 20 15  1  0  0  0
  9  3  1  0  0  0
  9 10  2  0  0  0
 11 12  2  0  0  0
 12 22  1  0  0  0
 13  8  2  0  0  0
 22 21  1  0  0  0
  4  1  1  0  0  0
  5  2  1  0  0  0
  6  7  1  0  0  0
  8  9  1  0  0  0
 10 11  1  0  0  0
 12 13  1  0  0  0
 22 23  2  0  0  0
  3 14  1  0  0  0
 21 24  1  0  0  0
 21 25  1  0  0  0
M  END
> <minimizedAffinity>
-8.58253

$$$$
CHEMBL3715588


 25 28  0  0  0  0  0  0  0  0999 V2000
   13.0868   15.1356    3.1758 N   0  0  0  0  0  0  0  0  0  0  0  0
   11.2274   14.0532    2.0734 N   0  0  0  0  0  0  0  0  0  0  0  0
   11.4923   11.6839    1.8815 N   0  0  0  0  0  0  0  0  0  0  0  0
   11.8813   15.1119    2.5753 C   0  0  0  0  0  0  0  0  0  0  0  0
   11.9193   12.9224    2.2691 C   0  0  0  0  0  0  0  0  0  0  0  0
   13.1573   12.7903    2.8778 C   0  0  0  0  0  0  0  0  0  0  0  0
   13.7888   13.9777    3.3106 C   0  0  0  0  0  0  0  0  0  0  0  0
   13.4373   11.3853    2.9206 C   0  0  0  0  0  0  0  0  0  0  0  0
   12.4023   10.7233    2.2577 C   0  0  0  0  0  0  0  0  0  0  0  0
   12.3827    9.3358    2.0814 C   0  0  0  0  0  0  0  0  0  0  0  0
   13.4613    8.6030    2.5947 C   0  0  0  0  0  0  0  0  0  0  0  0
   14.5064    9.2242    3.2880 C   0  0  0  0  0  0  0  0  0  0  0  0
   14.4762   10.6108    3.4803 C   0  0  0  0  0  0  0  0  0  0  0  0
   10.6187   11.5167    1.4060 H   0  0  0  0  0  0  0  0  0  0  0  0
   15.0617   14.0219    3.8641 N   0  0  0  0  0  0  0  0  0  0  0  0
   15.2168   13.7726    5.2950 C   0  0  0  0  0  0  0  0  0  0  0  0
   16.0912   12.5483    5.5549 C   0  0  0  0  0  0  0  0  0  0  0  0
   17.4185   12.5762    4.7908 C   0  0  0  0  0  0  0  0  0  0  0  0
   17.4855   13.6938    3.7529 C   0  0  0  0  0  0  0  0  0  0  0  0
   16.1811   13.7623    2.9647 C   0  0  0  0  0  0  0  0  0  0  0  0
   15.6566    7.0547    3.4457 N   0  0  0  0  0  0  0  0  0  0  0  0
   15.6245    8.3771    3.7952 C   0  0  0  0  0  0  0  0  0  0  0  0
   16.4929    8.8355    4.5295 O   0  0  0  0  0  0  0  0  0  0  0  0
   16.4217    6.5048    3.8146 H   0  0  0  0  0  0  0  0  0  0  0  0
   14.9754    6.5834    2.8729 H   0  0  0  0  0  0  0  0  0  0  0  0
  3  5  1  0  0  0
  4  2  2  0  0  0
  5  6  2  0  0  0
  6  8  1  0  0  0
  7 15  1  0  0  0
  7  1  2  0  0  0
 16 15  1  0  0  0
 16 17  1  0  0  0
 17 18  1  0  0  0
 18 19  1  0  0  0
 19 20  1  0  0  0
 20 15  1  0  0  0
  9  3  1  0  0  0
  9 10  2  0  0  0
 11 12  2  0  0  0
 12 22  1  0  0  0
 13  8  2  0  0  0
 22 21  1  0  0  0
  4  1  1  0  0  0
  5  2  1  0  0  0
  6  7  1  0  0  0
  8  9  1  0  0  0
 10 11  1  0  0  0
 12 13  1  0  0  0
 22 23  2  0  0  0
  3 14  1  0  0  0
 21 24  1  0  0  0
 21 25  1  0  0  0
M  END
> <minimizedAffinity>
-8.53679

$$$$
CHEMBL3715588


 25 28  0  0  0  0  0  0  0  0999 V2000
   12.0469   13.0979    2.0884 N   0  0  0  0  0  0  0  0  0  0  0  0
   11.9218   10.6858    2.1896 N   0  0  0  0  0  0  0  0  0  0  0  0
   13.8785    9.6768    3.1244 N   0  0  0  0  0  0  0  0  0  0  0  0
   11.4400   11.9079    1.9160 C   0  0  0  0  0  0  0  0  0  0  0  0
   13.1472   10.7601    2.7268 C   0  0  0  0  0  0  0  0  0  0  0  0
   13.8875   11.9053    2.9740 C   0  0  0  0  0  0  0  0  0  0  0  0
   13.3130   13.1363    2.5856 C   0  0  0  0  0  0  0  0  0  0  0  0
   15.0890   11.4754    3.6263 C   0  0  0  0  0  0  0  0  0  0  0  0
   15.0748   10.0801    3.6710 C   0  0  0  0  0  0  0  0  0  0  0  0
   16.1248    9.3300    4.2109 C   0  0  0  0  0  0  0  0  0  0  0  0
   17.2282   10.0311    4.7155 C   0  0  0  0  0  0  0  0  0  0  0  0
   17.2718   11.4300    4.7136 C   0  0  0  0  0  0  0  0  0  0  0  0
   16.1870   12.1515    4.2003 C   0  0  0  0  0  0  0  0  0  0  0  0
   13.5586    8.7241    3.0396 H   0  0  0  0  0  0  0  0  0  0  0  0
   13.9587   14.3612    2.6913 N   0  0  0  0  0  0  0  0  0  0  0  0
   13.8749   15.0953    3.9513 C   0  0  0  0  0  0  0  0  0  0  0  0
   15.2556   15.2960    4.5712 C   0  0  0  0  0  0  0  0  0  0  0  0
   16.2829   15.8739    3.5929 C   0  0  0  0  0  0  0  0  0  0  0  0
   15.7821   15.9033    2.1509 C   0  0  0  0  0  0  0  0  0  0  0  0
   15.0944   14.5866    1.8033 C   0  0  0  0  0  0  0  0  0  0  0  0
   18.3281   13.2486    5.9909 N   0  0  0  0  0  0  0  0  0  0  0  0
   18.4858   12.1035    5.2589 C   0  0  0  0  0  0  0  0  0  0  0  0
   19.6111   11.6654    5.0461 O   0  0  0  0  0  0  0  0  0  0  0  0
   19.1715   13.6871    6.3375 H   0  0  0  0  0  0  0  0  0  0  0  0
   17.4500   13.6979    6.1937 H   0  0  0  0  0  0  0  0  0  0  0  0
  3  5  1  0  0  0
  4  2  2  0  0  0
  5  6  2  0  0  0
  6  8  1  0  0  0
  7 15  1  0  0  0
  7  1  2  0  0  0
 16 15  1  0  0  0
 16 17  1  0  0  0
 17 18  1  0  0  0
 18 19  1  0  0  0
 19 20  1  0  0  0
 20 15  1  0  0  0
  9  3  1  0  0  0
  9 10  2  0  0  0
 11 12  2  0  0  0
 12 22  1  0  0  0
 13  8  2  0  0  0
 22 21  1  0  0  0
  4  1  1  0  0  0
  5  2  1  0  0  0
  6  7  1  0  0  0
  8  9  1  0  0  0
 10 11  1  0  0  0
 12 13  1  0  0  0
 22 23  2  0  0  0
  3 14  1  0  0  0
 21 24  1  0  0  0
 21 25  1  0  0  0
M  END
> <minimizedAffinity>
-8.38620

$$$$
CHEMBL3715588


 25 28  0  0  0  0  0  0  0  0999 V2000
   18.4805   13.6847    4.9065 N   0  0  0  0  0  0  0  0  0  0  0  0
   19.4967   11.6172    5.6390 N   0  0  0  0  0  0  0  0  0  0  0  0
   18.1551    9.6909    5.1804 N   0  0  0  0  0  0  0  0  0  0  0  0
   19.4632   12.9461    5.4568 C   0  0  0  0  0  0  0  0  0  0  0  0
   18.3910   11.0363    5.1535 C   0  0  0  0  0  0  0  0  0  0  0  0
   17.3091   11.6606    4.5532 C   0  0  0  0  0  0  0  0  0  0  0  0
   17.3464   13.0707    4.4723 C   0  0  0  0  0  0  0  0  0  0  0  0
   16.4231   10.6154    4.1328 C   0  0  0  0  0  0  0  0  0  0  0  0
   16.9558    9.4019    4.5717 C   0  0  0  0  0  0  0  0  0  0  0  0
   16.3168    8.1754    4.3616 C   0  0  0  0  0  0  0  0  0  0  0  0
   15.0891    8.1927    3.6861 C   0  0  0  0  0  0  0  0  0  0  0  0
   14.5323    9.3841    3.2070 C   0  0  0  0  0  0  0  0  0  0  0  0
   15.2166   10.5902    3.4007 C   0  0  0  0  0  0  0  0  0  0  0  0
   18.7939    9.0187    5.5771 H   0  0  0  0  0  0  0  0  0  0  0  0
   16.3083   13.8468    3.9740 N   0  0  0  0  0  0  0  0  0  0  0  0
   15.6692   14.8193    4.8568 C   0  0  0  0  0  0  0  0  0  0  0  0
   15.8288   16.2419    4.3260 C   0  0  0  0  0  0  0  0  0  0  0  0
   15.4247   16.3909    2.8560 C   0  0  0  0  0  0  0  0  0  0  0  0
   15.1776   15.0512    2.1668 C   0  0  0  0  0  0  0  0  0  0  0  0
   16.2777   14.0588    2.5306 C   0  0  0  0  0  0  0  0  0  0  0  0
   12.4597   10.4589    2.4302 N   0  0  0  0  0  0  0  0  0  0  0  0
   13.2167    9.3219    2.5069 C   0  0  0  0  0  0  0  0  0  0  0  0
   12.7973    8.2758    2.0238 O   0  0  0  0  0  0  0  0  0  0  0  0
   11.5680   10.3812    1.9584 H   0  0  0  0  0  0  0  0  0  0  0  0
   12.7063   11.3543    2.8197 H   0  0  0  0  0  0  0  0  0  0  0  0
  3  5  1  0  0  0
  4  2  2  0  0  0
  5  6  2  0  0  0
  6  8  1  0  0  0
  7 15  1  0  0  0
  7  1  2  0  0  0
 16 15  1  0  0  0
 16 17  1  0  0  0
 17 18  1  0  0  0
 18 19  1  0  0  0
 19 20  1  0  0  0
 20 15  1  0  0  0
  9  3  1  0  0  0
  9 10  2  0  0  0
 11 12  2  0  0  0
 12 22  1  0  0  0
 13  8  2  0  0  0
 22 21  1  0  0  0
  4  1  1  0  0  0
  5  2  1  0  0  0
  6  7  1  0  0  0
  8  9  1  0  0  0
 10 11  1  0  0  0
 12 13  1  0  0  0
 22 23  2  0  0  0
  3 14  1  0  0  0
 21 24  1  0  0  0
 21 25  1  0  0  0
M  END
> <minimizedAffinity>
-8.33232

$$$$
CHEMBL3715588


 25 28  0  0  0  0  0  0  0  0999 V2000
   17.9754   13.6115    5.3660 N   0  0  0  0  0  0  0  0  0  0  0  0
   18.2891   11.2211    5.1889 N   0  0  0  0  0  0  0  0  0  0  0  0
   16.4355   10.0973    4.1780 N   0  0  0  0  0  0  0  0  0  0  0  0
   18.6692   12.4664    5.5130 C   0  0  0  0  0  0  0  0  0  0  0  0
   17.0726   11.2194    4.6271 C   0  0  0  0  0  0  0  0  0  0  0  0
   16.2508   12.3121    4.4008 C   0  0  0  0  0  0  0  0  0  0  0  0
   16.7202   13.5696    4.8419 C   0  0  0  0  0  0  0  0  0  0  0  0
   15.0994   11.8137    3.7080 C   0  0  0  0  0  0  0  0  0  0  0  0
   15.2227   10.4259    3.6182 C   0  0  0  0  0  0  0  0  0  0  0  0
   14.2449    9.6164    3.0306 C   0  0  0  0  0  0  0  0  0  0  0  0
   13.1007   10.2475    2.5245 C   0  0  0  0  0  0  0  0  0  0  0  0
   12.9488   11.6380    2.5711 C   0  0  0  0  0  0  0  0  0  0  0  0
   13.9639   12.4227    3.1318 C   0  0  0  0  0  0  0  0  0  0  0  0
   16.8266    9.1696    4.2389 H   0  0  0  0  0  0  0  0  0  0  0  0
   15.9838   14.7441    4.7618 N   0  0  0  0  0  0  0  0  0  0  0  0
   15.2818   15.2180    5.9519 C   0  0  0  0  0  0  0  0  0  0  0  0
   15.7895   16.5902    6.3880 C   0  0  0  0  0  0  0  0  0  0  0  0
   15.8257   17.6147    5.2498 C   0  0  0  0  0  0  0  0  0  0  0  0
   15.5777   16.9913    3.8784 C   0  0  0  0  0  0  0  0  0  0  0  0
   16.3773   15.7002    3.7322 C   0  0  0  0  0  0  0  0  0  0  0  0
   11.5248   13.5893    2.1027 N   0  0  0  0  0  0  0  0  0  0  0  0
   11.6972   12.2345    2.0209 C   0  0  0  0  0  0  0  0  0  0  0  0
   10.8208   11.5368    1.5222 O   0  0  0  0  0  0  0  0  0  0  0  0
   10.6608   13.9615    1.7303 H   0  0  0  0  0  0  0  0  0  0  0  0
   12.1731   14.2383    2.5183 H   0  0  0  0  0  0  0  0  0  0  0  0
  3  5  1  0  0  0
  4  2  2  0  0  0
  5  6  2  0  0  0
  6  8  1  0  0  0
  7 15  1  0  0  0
  7  1  2  0  0  0
 16 15  1  0  0  0
 16 17  1  0  0  0
 17 18  1  0  0  0
 18 19  1  0  0  0
 19 20  1  0  0  0
 20 15  1  0  0  0
  9  3  1  0  0  0
  9 10  2  0  0  0
 11 12  2  0  0  0
 12 22  1  0  0  0
 13  8  2  0  0  0
 22 21  1  0  0  0
  4  1  1  0  0  0
  5  2  1  0  0  0
  6  7  1  0  0  0
  8  9  1  0  0  0
 10 11  1  0  0  0
 12 13  1  0  0  0
 22 23  2  0  0  0
  3 14  1  0  0  0
 21 24  1  0  0  0
 21 25  1  0  0  0
M  END
> <minimizedAffinity>
-8.15766

$$$$
CHEMBL3715588


 25 28  0  0  0  0  0  0  0  0999 V2000
   16.0339   16.2907    4.9774 N   0  0  0  0  0  0  0  0  0  0  0  0
   13.9766   16.3921    3.7122 N   0  0  0  0  0  0  0  0  0  0  0  0
   13.2132   14.2480    2.9769 N   0  0  0  0  0  0  0  0  0  0  0  0
   14.9825   16.9242    4.4231 C   0  0  0  0  0  0  0  0  0  0  0  0
   14.1003   15.0607    3.6242 C   0  0  0  0  0  0  0  0  0  0  0  0
   15.1137   14.2751    4.1500 C   0  0  0  0  0  0  0  0  0  0  0  0
   16.1597   14.9445    4.8237 C   0  0  0  0  0  0  0  0  0  0  0  0
   14.7603   12.9161    3.8628 C   0  0  0  0  0  0  0  0  0  0  0  0
   13.5930   12.9313    3.0969 C   0  0  0  0  0  0  0  0  0  0  0  0
   12.9934   11.7654    2.6092 C   0  0  0  0  0  0  0  0  0  0  0  0
   13.6127   10.5448    2.9098 C   0  0  0  0  0  0  0  0  0  0  0  0
   14.7692   10.4829    3.6956 C   0  0  0  0  0  0  0  0  0  0  0  0
   15.3224   11.6662    4.2001 C   0  0  0  0  0  0  0  0  0  0  0  0
   12.3898   14.5847    2.5015 H   0  0  0  0  0  0  0  0  0  0  0  0
   17.2841   14.3099    5.3350 N   0  0  0  0  0  0  0  0  0  0  0  0
   18.2841   13.7911    4.4052 C   0  0  0  0  0  0  0  0  0  0  0  0
   19.6389   14.4635    4.6128 C   0  0  0  0  0  0  0  0  0  0  0  0
   20.1011   14.4612    6.0732 C   0  0  0  0  0  0  0  0  0  0  0  0
   19.0127   14.0062    7.0423 C   0  0  0  0  0  0  0  0  0  0  0  0
   17.6831   14.6675    6.6922 C   0  0  0  0  0  0  0  0  0  0  0  0
   14.9528    8.0747    3.2252 N   0  0  0  0  0  0  0  0  0  0  0  0
   15.3755    9.1466    3.9629 C   0  0  0  0  0  0  0  0  0  0  0  0
   16.2205    8.9903    4.8376 O   0  0  0  0  0  0  0  0  0  0  0  0
   15.3755    7.1805    3.4380 H   0  0  0  0  0  0  0  0  0  0  0  0
   14.2465    8.0993    2.5077 H   0  0  0  0  0  0  0  0  0  0  0  0
  3  5  1  0  0  0
  4  2  2  0  0  0
  5  6  2  0  0  0
  6  8  1  0  0  0
  7 15  1  0  0  0
  7  1  2  0  0  0
 16 15  1  0  0  0
 16 17  1  0  0  0
 17 18  1  0  0  0
 18 19  1  0  0  0
 19 20  1  0  0  0
 20 15  1  0  0  0
  9  3  1  0  0  0
  9 10  2  0  0  0
 11 12  2  0  0  0
 12 22  1  0  0  0
 13  8  2  0  0  0
 22 21  1  0  0  0
  4  1  1  0  0  0
  5  2  1  0  0  0
  6  7  1  0  0  0
  8  9  1  0  0  0
 10 11  1  0  0  0
 12 13  1  0  0  0
 22 23  2  0  0  0
  3 14  1  0  0  0
 21 24  1  0  0  0
 21 25  1  0  0  0
M  END
> <minimizedAffinity>
-7.96733

$$$$
CHEMBL3719354


 25 28  0  0  0  0  0  0  0  0999 V2000
   17.8059   10.9692    5.2678 N   0  0  0  0  0  0  0  0  0  0  0  0
   17.3649    8.6230    4.8878 N   0  0  0  0  0  0  0  0  0  0  0  0
   15.3084    8.2231    3.7338 N   0  0  0  0  0  0  0  0  0  0  0  0
   18.0979    9.6559    5.3307 C   0  0  0  0  0  0  0  0  0  0  0  0
   16.2401    9.0487    4.2969 C   0  0  0  0  0  0  0  0  0  0  0  0
   15.8145   10.3590    4.1471 C   0  0  0  0  0  0  0  0  0  0  0  0
   16.6300   11.3662    4.7099 C   0  0  0  0  0  0  0  0  0  0  0  0
   14.6029   10.3044    3.3834 C   0  0  0  0  0  0  0  0  0  0  0  0
   14.2904    8.9598    3.1743 C   0  0  0  0  0  0  0  0  0  0  0  0
   13.1406    8.5480    2.4922 C   0  0  0  0  0  0  0  0  0  0  0  0
   12.2794    9.5451    2.0147 C   0  0  0  0  0  0  0  0  0  0  0  0
   12.5680   10.9046    2.1804 C   0  0  0  0  0  0  0  0  0  0  0  0
   13.7468   11.2831    2.8344 C   0  0  0  0  0  0  0  0  0  0  0  0
   15.3859    7.2175    3.7224 H   0  0  0  0  0  0  0  0  0  0  0  0
   16.3032   12.7158    4.7153 N   0  0  0  0  0  0  0  0  0  0  0  0
   16.6668   13.5333    3.5606 C   0  0  0  0  0  0  0  0  0  0  0  0
   15.4316   14.1280    2.8887 C   0  0  0  0  0  0  0  0  0  0  0  0
   14.4887   14.8352    3.8671 C   0  0  0  0  0  0  0  0  0  0  0  0
   14.8552   14.5925    5.3291 C   0  0  0  0  0  0  0  0  0  0  0  0
   15.1800   13.1190    5.5550 C   0  0  0  0  0  0  0  0  0  0  0  0
   11.8097   13.2309    1.9203 N   0  0  0  0  0  0  0  0  0  0  0  0
   11.5965   11.9061    1.6531 C   0  0  0  0  0  0  0  0  0  0  0  0
   10.6097   11.5642    1.0106 O   0  0  0  0  0  0  0  0  0  0  0  0
   11.1271   13.8839    1.5579 H   0  0  0  0  0  0  0  0  0  0  0  0
   12.5729   13.6040    2.4610 H   0  0  0  0  0  0  0  0  0  0  0  0
  3  5  1  0  0  0
  4  2  2  0  0  0
  5  6  2  0  0  0
  6  8  1  0  0  0
  7 15  1  0  0  0
  7  1  2  0  0  0
 16 15  1  0  0  0
 16 17  1  0  0  0
 17 18  1  0  0  0
 18 19  1  0  0  0
 19 20  1  0  0  0
 20 15  1  0  0  0
  9  3  1  0  0  0
  9 10  2  0  0  0
 11 12  2  0  0  0
 12 22  1  0  0  0
 13  8  2  0  0  0
 22 21  1  0  0  0
  4  1  1  0  0  0
  5  2  1  0  0  0
  6  7  1  0  0  0
  8  9  1  0  0  0
 10 11  1  0  0  0
 12 13  1  0  0  0
 22 23  2  0  0  0
  3 14  1  0  0  0
 21 24  1  0  0  0
 21 25  1  0  0  0
M  END
> <minimizedAffinity>
-9.18317

$$$$
CHEMBL3719354


 25 28  0  0  0  0  0  0  0  0999 V2000
   12.6901   14.0666    2.8338 N   0  0  0  0  0  0  0  0  0  0  0  0
   11.5767   12.0549    2.0875 N   0  0  0  0  0  0  0  0  0  0  0  0
   12.8258   10.0640    2.5309 N   0  0  0  0  0  0  0  0  0  0  0  0
   11.6732   13.3794    2.2791 C   0  0  0  0  0  0  0  0  0  0  0  0
   12.6540   11.4188    2.5677 C   0  0  0  0  0  0  0  0  0  0  0  0
   13.7646   11.9868    3.1714 C   0  0  0  0  0  0  0  0  0  0  0  0
   13.7941   13.3965    3.2625 C   0  0  0  0  0  0  0  0  0  0  0  0
   14.6003   10.8978    3.5835 C   0  0  0  0  0  0  0  0  0  0  0  0
   14.0104    9.7141    3.1364 C   0  0  0  0  0  0  0  0  0  0  0  0
   14.5908    8.4572    3.3370 C   0  0  0  0  0  0  0  0  0  0  0  0
   15.8184    8.4115    4.0115 C   0  0  0  0  0  0  0  0  0  0  0  0
   16.4313    9.5717    4.4986 C   0  0  0  0  0  0  0  0  0  0  0  0
   15.8047   10.8102    4.3143 C   0  0  0  0  0  0  0  0  0  0  0  0
   12.1557    9.4256    2.1300 H   0  0  0  0  0  0  0  0  0  0  0  0
   14.8681   14.1189    3.7654 N   0  0  0  0  0  0  0  0  0  0  0  0
   15.5816   15.0317    2.8758 C   0  0  0  0  0  0  0  0  0  0  0  0
   15.4990   16.4724    3.3742 C   0  0  0  0  0  0  0  0  0  0  0  0
   15.8841   16.6284    4.8486 C   0  0  0  0  0  0  0  0  0  0  0  0
   16.0363   15.2914    5.5697 C   0  0  0  0  0  0  0  0  0  0  0  0
   14.8848   14.3597    5.2045 C   0  0  0  0  0  0  0  0  0  0  0  0
   17.7530    9.0422    6.5054 N   0  0  0  0  0  0  0  0  0  0  0  0
   17.7429    9.4422    5.1970 C   0  0  0  0  0  0  0  0  0  0  0  0
   18.7983    9.7063    4.6315 O   0  0  0  0  0  0  0  0  0  0  0  0
   18.6575    8.9745    6.9537 H   0  0  0  0  0  0  0  0  0  0  0  0
   16.9391    8.8312    7.0598 H   0  0  0  0  0  0  0  0  0  0  0  0
  3  5  1  0  0  0
  4  2  2  0  0  0
  5  6  2  0  0  0
  6  8  1  0  0  0
  7 15  1  0  0  0
  7  1  2  0  0  0
 16 15  1  0  0  0
 16 17  1  0  0  0
 17 18  1  0  0  0
 18 19  1  0  0  0
 19 20  1  0  0  0
 20 15  1  0  0  0
  9  3  1  0  0  0
  9 10  2  0  0  0
 11 12  2  0  0  0
 12 22  1  0  0  0
 13  8  2  0  0  0
 22 21  1  0  0  0
  4  1  1  0  0  0
  5  2  1  0  0  0
  6  7  1  0  0  0
  8  9  1  0  0  0
 10 11  1  0  0  0
 12 13  1  0  0  0
 22 23  2  0  0  0
  3 14  1  0  0  0
 21 24  1  0  0  0
 21 25  1  0  0  0
M  END
> <minimizedAffinity>
-9.13949

$$$$
CHEMBL3719354


 25 28  0  0  0  0  0  0  0  0999 V2000
   16.5715    9.6677    4.5264 N   0  0  0  0  0  0  0  0  0  0  0  0
   14.8300    8.3232    3.5247 N   0  0  0  0  0  0  0  0  0  0  0  0
   12.9926    9.6160    2.7042 N   0  0  0  0  0  0  0  0  0  0  0  0
   16.0166    8.5086    4.1231 C   0  0  0  0  0  0  0  0  0  0  0  0
   14.2090    9.4918    3.3136 C   0  0  0  0  0  0  0  0  0  0  0  0
   14.6589   10.7561    3.6596 C   0  0  0  0  0  0  0  0  0  0  0  0
   15.8911   10.8323    4.3467 C   0  0  0  0  0  0  0  0  0  0  0  0
   13.6880   11.6814    3.1543 C   0  0  0  0  0  0  0  0  0  0  0  0
   12.6419   10.9420    2.5993 C   0  0  0  0  0  0  0  0  0  0  0  0
   11.5034   11.5390    2.0478 C   0  0  0  0  0  0  0  0  0  0  0  0
   11.4307   12.9383    2.0712 C   0  0  0  0  0  0  0  0  0  0  0  0
   12.4684   13.7180    2.5947 C   0  0  0  0  0  0  0  0  0  0  0  0
   13.6113   13.0899    3.1045 C   0  0  0  0  0  0  0  0  0  0  0  0
   12.4532    8.8333    2.3669 H   0  0  0  0  0  0  0  0  0  0  0  0
   16.4371   12.0136    4.8312 N   0  0  0  0  0  0  0  0  0  0  0  0
   17.5668   12.6101    4.1229 C   0  0  0  0  0  0  0  0  0  0  0  0
   17.2228   14.0022    3.5990 C   0  0  0  0  0  0  0  0  0  0  0  0
   16.6148   14.9195    4.6645 C   0  0  0  0  0  0  0  0  0  0  0  0
   16.2601   14.1824    5.9537 C   0  0  0  0  0  0  0  0  0  0  0  0
   15.5636   12.8633    5.6339 C   0  0  0  0  0  0  0  0  0  0  0  0
   11.1237   15.7358    2.1764 N   0  0  0  0  0  0  0  0  0  0  0  0
   12.3121   15.2014    2.5936 C   0  0  0  0  0  0  0  0  0  0  0  0
   13.2276   15.9420    2.9353 O   0  0  0  0  0  0  0  0  0  0  0  0
   11.0531   16.7451    2.1772 H   0  0  0  0  0  0  0  0  0  0  0  0
   10.3274   15.2115    1.8519 H   0  0  0  0  0  0  0  0  0  0  0  0
  3  5  1  0  0  0
  4  2  2  0  0  0
  5  6  2  0  0  0
  6  8  1  0  0  0
  7 15  1  0  0  0
  7  1  2  0  0  0
 16 15  1  0  0  0
 16 17  1  0  0  0
 17 18  1  0  0  0
 18 19  1  0  0  0
 19 20  1  0  0  0
 20 15  1  0  0  0
  9  3  1  0  0  0
  9 10  2  0  0  0
 11 12  2  0  0  0
 12 22  1  0  0  0
 13  8  2  0  0  0
 22 21  1  0  0  0
  4  1  1  0  0  0
  5  2  1  0  0  0
  6  7  1  0  0  0
  8  9  1  0  0  0
 10 11  1  0  0  0
 12 13  1  0  0  0
 22 23  2  0  0  0
  3 14  1  0  0  0
 21 24  1  0  0  0
 21 25  1  0  0  0
M  END
> <minimizedAffinity>
-8.59778

$$$$
CHEMBL3719354


 25 28  0  0  0  0  0  0  0  0999 V2000
   13.0426   11.8290    2.5876 N   0  0  0  0  0  0  0  0  0  0  0  0
   12.6373    9.5277    1.9682 N   0  0  0  0  0  0  0  0  0  0  0  0
   14.2419    8.0071    2.8811 N   0  0  0  0  0  0  0  0  0  0  0  0
   12.3572   10.8399    1.9827 C   0  0  0  0  0  0  0  0  0  0  0  0
   13.7290    9.2600    2.6977 C   0  0  0  0  0  0  0  0  0  0  0  0
   14.5241   10.1653    3.3822 C   0  0  0  0  0  0  0  0  0  0  0  0
   14.1781   11.5311    3.2758 C   0  0  0  0  0  0  0  0  0  0  0  0
   15.5143    9.3915    4.0713 C   0  0  0  0  0  0  0  0  0  0  0  0
   15.3392    8.0545    3.7093 C   0  0  0  0  0  0  0  0  0  0  0  0
   16.1698    7.0299    4.1754 C   0  0  0  0  0  0  0  0  0  0  0  0
   17.2177    7.3867    5.0346 C   0  0  0  0  0  0  0  0  0  0  0  0
   17.4131    8.7112    5.4426 C   0  0  0  0  0  0  0  0  0  0  0  0
   16.5402    9.7072    4.9878 C   0  0  0  0  0  0  0  0  0  0  0  0
   13.8438    7.1744    2.4742 H   0  0  0  0  0  0  0  0  0  0  0  0
   14.9186   12.5646    3.8341 N   0  0  0  0  0  0  0  0  0  0  0  0
   15.3430   13.6695    2.9781 C   0  0  0  0  0  0  0  0  0  0  0  0
   14.7569   14.9973    3.4518 C   0  0  0  0  0  0  0  0  0  0  0  0
   14.9761   15.2602    4.9448 C   0  0  0  0  0  0  0  0  0  0  0  0
   15.5178   14.0435    5.6912 C   0  0  0  0  0  0  0  0  0  0  0  0
   14.7651   12.7857    5.2683 C   0  0  0  0  0  0  0  0  0  0  0  0
   19.5264    9.8777    5.9196 N   0  0  0  0  0  0  0  0  0  0  0  0
   18.5574    9.0132    6.3504 C   0  0  0  0  0  0  0  0  0  0  0  0
   18.6545    8.4888    7.4545 O   0  0  0  0  0  0  0  0  0  0  0  0
   20.2946   10.0533    6.5542 H   0  0  0  0  0  0  0  0  0  0  0  0
   19.5477   10.3336    5.0219 H   0  0  0  0  0  0  0  0  0  0  0  0
  3  5  1  0  0  0
  4  2  2  0  0  0
  5  6  2  0  0  0
  6  8  1  0  0  0
  7 15  1  0  0  0
  7  1  2  0  0  0
 16 15  1  0  0  0
 16 17  1  0  0  0
 17 18  1  0  0  0
 18 19  1  0  0  0
 19 20  1  0  0  0
 20 15  1  0  0  0
  9  3  1  0  0  0
  9 10  2  0  0  0
 11 12  2  0  0  0
 12 22  1  0  0  0
 13  8  2  0  0  0
 22 21  1  0  0  0
  4  1  1  0  0  0
  5  2  1  0  0  0
  6  7  1  0  0  0
  8  9  1  0  0  0
 10 11  1  0  0  0
 12 13  1  0  0  0
 22 23  2  0  0  0
  3 14  1  0  0  0
 21 24  1  0  0  0
 21 25  1  0  0  0
M  END
> <minimizedAffinity>
-8.58253

$$$$
CHEMBL3719354


 25 28  0  0  0  0  0  0  0  0999 V2000
   13.0868   15.1356    3.1758 N   0  0  0  0  0  0  0  0  0  0  0  0
   11.2274   14.0532    2.0734 N   0  0  0  0  0  0  0  0  0  0  0  0
   11.4923   11.6839    1.8815 N   0  0  0  0  0  0  0  0  0  0  0  0
   11.8813   15.1119    2.5753 C   0  0  0  0  0  0  0  0  0  0  0  0
   11.9193   12.9224    2.2691 C   0  0  0  0  0  0  0  0  0  0  0  0
   13.1573   12.7903    2.8778 C   0  0  0  0  0  0  0  0  0  0  0  0
   13.7888   13.9777    3.3106 C   0  0  0  0  0  0  0  0  0  0  0  0
   13.4373   11.3853    2.9206 C   0  0  0  0  0  0  0  0  0  0  0  0
   12.4023   10.7233    2.2577 C   0  0  0  0  0  0  0  0  0  0  0  0
   12.3827    9.3358    2.0814 C   0  0  0  0  0  0  0  0  0  0  0  0
   13.4613    8.6030    2.5947 C   0  0  0  0  0  0  0  0  0  0  0  0
   14.5064    9.2242    3.2880 C   0  0  0  0  0  0  0  0  0  0  0  0
   14.4762   10.6108    3.4803 C   0  0  0  0  0  0  0  0  0  0  0  0
   10.6187   11.5167    1.4060 H   0  0  0  0  0  0  0  0  0  0  0  0
   15.0617   14.0219    3.8641 N   0  0  0  0  0  0  0  0  0  0  0  0
   15.2168   13.7726    5.2950 C   0  0  0  0  0  0  0  0  0  0  0  0
   16.0912   12.5483    5.5549 C   0  0  0  0  0  0  0  0  0  0  0  0
   17.4185   12.5762    4.7908 C   0  0  0  0  0  0  0  0  0  0  0  0
   17.4855   13.6938    3.7529 C   0  0  0  0  0  0  0  0  0  0  0  0
   16.1811   13.7623    2.9647 C   0  0  0  0  0  0  0  0  0  0  0  0
   15.6566    7.0547    3.4457 N   0  0  0  0  0  0  0  0  0  0  0  0
   15.6245    8.3771    3.7952 C   0  0  0  0  0  0  0  0  0  0  0  0
   16.4929    8.8355    4.5295 O   0  0  0  0  0  0  0  0  0  0  0  0
   16.4217    6.5048    3.8146 H   0  0  0  0  0  0  0  0  0  0  0  0
   14.9754    6.5834    2.8729 H   0  0  0  0  0  0  0  0  0  0  0  0
  3  5  1  0  0  0
  4  2  2  0  0  0
  5  6  2  0  0  0
  6  8  1  0  0  0
  7 15  1  0  0  0
  7  1  2  0  0  0
 16 15  1  0  0  0
 16 17  1  0  0  0
 17 18  1  0  0  0
 18 19  1  0  0  0
 19 20  1  0  0  0
 20 15  1  0  0  0
  9  3  1  0  0  0
  9 10  2  0  0  0
 11 12  2  0  0  0
 12 22  1  0  0  0
 13  8  2  0  0  0
 22 21  1  0  0  0
  4  1  1  0  0  0
  5  2  1  0  0  0
  6  7  1  0  0  0
  8  9  1  0  0  0
 10 11  1  0  0  0
 12 13  1  0  0  0
 22 23  2  0  0  0
  3 14  1  0  0  0
 21 24  1  0  0  0
 21 25  1  0  0  0
M  END
> <minimizedAffinity>
-8.53679

$$$$
CHEMBL3719354


 25 28  0  0  0  0  0  0  0  0999 V2000
   12.0469   13.0979    2.0884 N   0  0  0  0  0  0  0  0  0  0  0  0
   11.9218   10.6858    2.1896 N   0  0  0  0  0  0  0  0  0  0  0  0
   13.8785    9.6768    3.1244 N   0  0  0  0  0  0  0  0  0  0  0  0
   11.4400   11.9079    1.9160 C   0  0  0  0  0  0  0  0  0  0  0  0
   13.1472   10.7601    2.7268 C   0  0  0  0  0  0  0  0  0  0  0  0
   13.8875   11.9053    2.9740 C   0  0  0  0  0  0  0  0  0  0  0  0
   13.3130   13.1363    2.5856 C   0  0  0  0  0  0  0  0  0  0  0  0
   15.0890   11.4754    3.6263 C   0  0  0  0  0  0  0  0  0  0  0  0
   15.0748   10.0801    3.6710 C   0  0  0  0  0  0  0  0  0  0  0  0
   16.1248    9.3300    4.2109 C   0  0  0  0  0  0  0  0  0  0  0  0
   17.2282   10.0311    4.7155 C   0  0  0  0  0  0  0  0  0  0  0  0
   17.2718   11.4300    4.7136 C   0  0  0  0  0  0  0  0  0  0  0  0
   16.1870   12.1515    4.2003 C   0  0  0  0  0  0  0  0  0  0  0  0
   13.5586    8.7241    3.0396 H   0  0  0  0  0  0  0  0  0  0  0  0
   13.9587   14.3612    2.6913 N   0  0  0  0  0  0  0  0  0  0  0  0
   13.8749   15.0953    3.9513 C   0  0  0  0  0  0  0  0  0  0  0  0
   15.2556   15.2960    4.5712 C   0  0  0  0  0  0  0  0  0  0  0  0
   16.2829   15.8739    3.5929 C   0  0  0  0  0  0  0  0  0  0  0  0
   15.7821   15.9033    2.1509 C   0  0  0  0  0  0  0  0  0  0  0  0
   15.0944   14.5866    1.8033 C   0  0  0  0  0  0  0  0  0  0  0  0
   18.3281   13.2486    5.9909 N   0  0  0  0  0  0  0  0  0  0  0  0
   18.4858   12.1035    5.2589 C   0  0  0  0  0  0  0  0  0  0  0  0
   19.6111   11.6654    5.0461 O   0  0  0  0  0  0  0  0  0  0  0  0
   19.1715   13.6871    6.3375 H   0  0  0  0  0  0  0  0  0  0  0  0
   17.4500   13.6979    6.1937 H   0  0  0  0  0  0  0  0  0  0  0  0
  3  5  1  0  0  0
  4  2  2  0  0  0
  5  6  2  0  0  0
  6  8  1  0  0  0
  7 15  1  0  0  0
  7  1  2  0  0  0
 16 15  1  0  0  0
 16 17  1  0  0  0
 17 18  1  0  0  0
 18 19  1  0  0  0
 19 20  1  0  0  0
 20 15  1  0  0  0
  9  3  1  0  0  0
  9 10  2  0  0  0
 11 12  2  0  0  0
 12 22  1  0  0  0
 13  8  2  0  0  0
 22 21  1  0  0  0
  4  1  1  0  0  0
  5  2  1  0  0  0
  6  7  1  0  0  0
  8  9  1  0  0  0
 10 11  1  0  0  0
 12 13  1  0  0  0
 22 23  2  0  0  0
  3 14  1  0  0  0
 21 24  1  0  0  0
 21 25  1  0  0  0
M  END
> <minimizedAffinity>
-8.38620

$$$$
CHEMBL3719354


 25 28  0  0  0  0  0  0  0  0999 V2000
   18.4805   13.6847    4.9065 N   0  0  0  0  0  0  0  0  0  0  0  0
   19.4967   11.6172    5.6390 N   0  0  0  0  0  0  0  0  0  0  0  0
   18.1551    9.6909    5.1804 N   0  0  0  0  0  0  0  0  0  0  0  0
   19.4632   12.9461    5.4568 C   0  0  0  0  0  0  0  0  0  0  0  0
   18.3910   11.0363    5.1535 C   0  0  0  0  0  0  0  0  0  0  0  0
   17.3091   11.6606    4.5532 C   0  0  0  0  0  0  0  0  0  0  0  0
   17.3464   13.0707    4.4723 C   0  0  0  0  0  0  0  0  0  0  0  0
   16.4231   10.6154    4.1328 C   0  0  0  0  0  0  0  0  0  0  0  0
   16.9558    9.4019    4.5717 C   0  0  0  0  0  0  0  0  0  0  0  0
   16.3168    8.1754    4.3616 C   0  0  0  0  0  0  0  0  0  0  0  0
   15.0891    8.1927    3.6861 C   0  0  0  0  0  0  0  0  0  0  0  0
   14.5323    9.3841    3.2070 C   0  0  0  0  0  0  0  0  0  0  0  0
   15.2166   10.5902    3.4007 C   0  0  0  0  0  0  0  0  0  0  0  0
   18.7939    9.0187    5.5771 H   0  0  0  0  0  0  0  0  0  0  0  0
   16.3083   13.8468    3.9740 N   0  0  0  0  0  0  0  0  0  0  0  0
   15.6692   14.8193    4.8568 C   0  0  0  0  0  0  0  0  0  0  0  0
   15.8288   16.2419    4.3260 C   0  0  0  0  0  0  0  0  0  0  0  0
   15.4247   16.3909    2.8560 C   0  0  0  0  0  0  0  0  0  0  0  0
   15.1776   15.0512    2.1668 C   0  0  0  0  0  0  0  0  0  0  0  0
   16.2777   14.0588    2.5306 C   0  0  0  0  0  0  0  0  0  0  0  0
   12.4597   10.4589    2.4302 N   0  0  0  0  0  0  0  0  0  0  0  0
   13.2167    9.3219    2.5069 C   0  0  0  0  0  0  0  0  0  0  0  0
   12.7973    8.2758    2.0238 O   0  0  0  0  0  0  0  0  0  0  0  0
   11.5680   10.3812    1.9584 H   0  0  0  0  0  0  0  0  0  0  0  0
   12.7063   11.3543    2.8197 H   0  0  0  0  0  0  0  0  0  0  0  0
  3  5  1  0  0  0
  4  2  2  0  0  0
  5  6  2  0  0  0
  6  8  1  0  0  0
  7 15  1  0  0  0
  7  1  2  0  0  0
 16 15  1  0  0  0
 16 17  1  0  0  0
 17 18  1  0  0  0
 18 19  1  0  0  0
 19 20  1  0  0  0
 20 15  1  0  0  0
  9  3  1  0  0  0
  9 10  2  0  0  0
 11 12  2  0  0  0
 12 22  1  0  0  0
 13  8  2  0  0  0
 22 21  1  0  0  0
  4  1  1  0  0  0
  5  2  1  0  0  0
  6  7  1  0  0  0
  8  9  1  0  0  0
 10 11  1  0  0  0
 12 13  1  0  0  0
 22 23  2  0  0  0
  3 14  1  0  0  0
 21 24  1  0  0  0
 21 25  1  0  0  0
M  END
> <minimizedAffinity>
-8.33232

$$$$
CHEMBL3719354


 25 28  0  0  0  0  0  0  0  0999 V2000
   17.9754   13.6115    5.3660 N   0  0  0  0  0  0  0  0  0  0  0  0
   18.2891   11.2211    5.1889 N   0  0  0  0  0  0  0  0  0  0  0  0
   16.4355   10.0973    4.1780 N   0  0  0  0  0  0  0  0  0  0  0  0
   18.6692   12.4664    5.5130 C   0  0  0  0  0  0  0  0  0  0  0  0
   17.0726   11.2194    4.6271 C   0  0  0  0  0  0  0  0  0  0  0  0
   16.2508   12.3121    4.4008 C   0  0  0  0  0  0  0  0  0  0  0  0
   16.7202   13.5696    4.8419 C   0  0  0  0  0  0  0  0  0  0  0  0
   15.0994   11.8137    3.7080 C   0  0  0  0  0  0  0  0  0  0  0  0
   15.2227   10.4259    3.6182 C   0  0  0  0  0  0  0  0  0  0  0  0
   14.2449    9.6164    3.0306 C   0  0  0  0  0  0  0  0  0  0  0  0
   13.1007   10.2475    2.5245 C   0  0  0  0  0  0  0  0  0  0  0  0
   12.9488   11.6380    2.5711 C   0  0  0  0  0  0  0  0  0  0  0  0
   13.9639   12.4227    3.1318 C   0  0  0  0  0  0  0  0  0  0  0  0
   16.8266    9.1696    4.2389 H   0  0  0  0  0  0  0  0  0  0  0  0
   15.9838   14.7441    4.7618 N   0  0  0  0  0  0  0  0  0  0  0  0
   15.2818   15.2180    5.9519 C   0  0  0  0  0  0  0  0  0  0  0  0
   15.7895   16.5902    6.3880 C   0  0  0  0  0  0  0  0  0  0  0  0
   15.8257   17.6147    5.2498 C   0  0  0  0  0  0  0  0  0  0  0  0
   15.5777   16.9913    3.8784 C   0  0  0  0  0  0  0  0  0  0  0  0
   16.3773   15.7002    3.7322 C   0  0  0  0  0  0  0  0  0  0  0  0
   11.5248   13.5893    2.1027 N   0  0  0  0  0  0  0  0  0  0  0  0
   11.6972   12.2345    2.0209 C   0  0  0  0  0  0  0  0  0  0  0  0
   10.8208   11.5368    1.5222 O   0  0  0  0  0  0  0  0  0  0  0  0
   10.6608   13.9615    1.7303 H   0  0  0  0  0  0  0  0  0  0  0  0
   12.1731   14.2383    2.5183 H   0  0  0  0  0  0  0  0  0  0  0  0
  3  5  1  0  0  0
  4  2  2  0  0  0
  5  6  2  0  0  0
  6  8  1  0  0  0
  7 15  1  0  0  0
  7  1  2  0  0  0
 16 15  1  0  0  0
 16 17  1  0  0  0
 17 18  1  0  0  0
 18 19  1  0  0  0
 19 20  1  0  0  0
 20 15  1  0  0  0
  9  3  1  0  0  0
  9 10  2  0  0  0
 11 12  2  0  0  0
 12 22  1  0  0  0
 13  8  2  0  0  0
 22 21  1  0  0  0
  4  1  1  0  0  0
  5  2  1  0  0  0
  6  7  1  0  0  0
  8  9  1  0  0  0
 10 11  1  0  0  0
 12 13  1  0  0  0
 22 23  2  0  0  0
  3 14  1  0  0  0
 21 24  1  0  0  0
 21 25  1  0  0  0
M  END
> <minimizedAffinity>
-8.15766

$$$$
CHEMBL3719354


 25 28  0  0  0  0  0  0  0  0999 V2000
   16.0339   16.2907    4.9774 N   0  0  0  0  0  0  0  0  0  0  0  0
   13.9766   16.3921    3.7122 N   0  0  0  0  0  0  0  0  0  0  0  0
   13.2132   14.2480    2.9769 N   0  0  0  0  0  0  0  0  0  0  0  0
   14.9825   16.9242    4.4231 C   0  0  0  0  0  0  0  0  0  0  0  0
   14.1003   15.0607    3.6242 C   0  0  0  0  0  0  0  0  0  0  0  0
   15.1137   14.2751    4.1500 C   0  0  0  0  0  0  0  0  0  0  0  0
   16.1597   14.9445    4.8237 C   0  0  0  0  0  0  0  0  0  0  0  0
   14.7603   12.9161    3.8628 C   0  0  0  0  0  0  0  0  0  0  0  0
   13.5930   12.9313    3.0969 C   0  0  0  0  0  0  0  0  0  0  0  0
   12.9934   11.7654    2.6092 C   0  0  0  0  0  0  0  0  0  0  0  0
   13.6127   10.5448    2.9098 C   0  0  0  0  0  0  0  0  0  0  0  0
   14.7692   10.4829    3.6956 C   0  0  0  0  0  0  0  0  0  0  0  0
   15.3224   11.6662    4.2001 C   0  0  0  0  0  0  0  0  0  0  0  0
   12.3898   14.5847    2.5015 H   0  0  0  0  0  0  0  0  0  0  0  0
   17.2841   14.3099    5.3350 N   0  0  0  0  0  0  0  0  0  0  0  0
   18.2841   13.7911    4.4052 C   0  0  0  0  0  0  0  0  0  0  0  0
   19.6389   14.4635    4.6128 C   0  0  0  0  0  0  0  0  0  0  0  0
   20.1011   14.4612    6.0732 C   0  0  0  0  0  0  0  0  0  0  0  0
   19.0127   14.0062    7.0423 C   0  0  0  0  0  0  0  0  0  0  0  0
   17.6831   14.6675    6.6922 C   0  0  0  0  0  0  0  0  0  0  0  0
   14.9528    8.0747    3.2252 N   0  0  0  0  0  0  0  0  0  0  0  0
   15.3755    9.1466    3.9629 C   0  0  0  0  0  0  0  0  0  0  0  0
   16.2205    8.9903    4.8376 O   0  0  0  0  0  0  0  0  0  0  0  0
   15.3755    7.1805    3.4380 H   0  0  0  0  0  0  0  0  0  0  0  0
   14.2465    8.0993    2.5077 H   0  0  0  0  0  0  0  0  0  0  0  0
  3  5  1  0  0  0
  4  2  2  0  0  0
  5  6  2  0  0  0
  6  8  1  0  0  0
  7 15  1  0  0  0
  7  1  2  0  0  0
 16 15  1  0  0  0
 16 17  1  0  0  0
 17 18  1  0  0  0
 18 19  1  0  0  0
 19 20  1  0  0  0
 20 15  1  0  0  0
  9  3  1  0  0  0
  9 10  2  0  0  0
 11 12  2  0  0  0
 12 22  1  0  0  0
 13  8  2  0  0  0
 22 21  1  0  0  0
  4  1  1  0  0  0
  5  2  1  0  0  0
  6  7  1  0  0  0
  8  9  1  0  0  0
 10 11  1  0  0  0
 12 13  1  0  0  0
 22 23  2  0  0  0
  3 14  1  0  0  0
 21 24  1  0  0  0
 21 25  1  0  0  0
M  END
> <minimizedAffinity>
-7.96733

$$$$
CHEMBL3716162


 26 29  0  0  0  0  0  0  0  0999 V2000
   12.7539   13.9463    2.7422 N   0  0  0  0  0  0  0  0  0  0  0  0
   11.6235   11.9118    2.0877 N   0  0  0  0  0  0  0  0  0  0  0  0
   12.8679    9.9339    2.5886 N   0  0  0  0  0  0  0  0  0  0  0  0
   11.7287   13.2425    2.2265 C   0  0  0  0  0  0  0  0  0  0  0  0
   12.7043   11.2899    2.5784 C   0  0  0  0  0  0  0  0  0  0  0  0
   13.8250   11.8736    3.1478 C   0  0  0  0  0  0  0  0  0  0  0  0
   13.8578   13.2875    3.1891 C   0  0  0  0  0  0  0  0  0  0  0  0
   14.6635   10.7924    3.5837 C   0  0  0  0  0  0  0  0  0  0  0  0
   14.0593    9.5973    3.1878 C   0  0  0  0  0  0  0  0  0  0  0  0
   14.6380    8.3433    3.4162 C   0  0  0  0  0  0  0  0  0  0  0  0
   15.8806    8.3027    4.0664 C   0  0  0  0  0  0  0  0  0  0  0  0
   16.5083    9.4734    4.5021 C   0  0  0  0  0  0  0  0  0  0  0  0
   15.8863   10.7128    4.2830 C   0  0  0  0  0  0  0  0  0  0  0  0
   12.1896    9.2878    2.2156 H   0  0  0  0  0  0  0  0  0  0  0  0
   14.9274   14.0180    3.6791 N   0  0  0  0  0  0  0  0  0  0  0  0
   15.9284   14.5206    2.7406 C   0  0  0  0  0  0  0  0  0  0  0  0
   15.7325   16.0162    2.4824 C   0  0  0  0  0  0  0  0  0  0  0  0
   15.6290   16.8347    3.7772 C   0  0  0  0  0  0  0  0  0  0  0  0
   14.5450   16.2305    4.6832 C   0  0  0  0  0  0  0  0  0  0  0  0
   14.7632   14.7396    4.9358 C   0  0  0  0  0  0  0  0  0  0  0  0
   16.9800   16.9439    4.4907 C   0  0  0  0  0  0  0  0  0  0  0  0
   17.9136    9.2044    6.5063 N   0  0  0  0  0  0  0  0  0  0  0  0
   17.8399    9.4993    5.1753 C   0  0  0  0  0  0  0  0  0  0  0  0
   18.8654    9.7680    4.5576 O   0  0  0  0  0  0  0  0  0  0  0  0
   18.8369    9.2244    6.9202 H   0  0  0  0  0  0  0  0  0  0  0  0
   17.1329    8.9818    7.1010 H   0  0  0  0  0  0  0  0  0  0  0  0
  3  5  1  0  0  0
  4  2  2  0  0  0
  5  6  2  0  0  0
  6  8  1  0  0  0
  7 15  1  0  0  0
  7  1  2  0  0  0
 16 15  1  0  0  0
 16 17  1  0  0  0
 17 18  1  0  0  0
 18 19  1  0  0  0
 18 21  1  0  0  0
 19 20  1  0  0  0
 20 15  1  0  0  0
  9  3  1  0  0  0
  9 10  2  0  0  0
 11 12  2  0  0  0
 12 23  1  0  0  0
 13  8  2  0  0  0
 23 22  1  0  0  0
  4  1  1  0  0  0
  5  2  1  0  0  0
  6  7  1  0  0  0
  8  9  1  0  0  0
 10 11  1  0  0  0
 12 13  1  0  0  0
 23 24  2  0  0  0
  3 14  1  0  0  0
 22 25  1  0  0  0
 22 26  1  0  0  0
M  END
> <minimizedAffinity>
-9.77108

$$$$
CHEMBL3716162


 26 29  0  0  0  0  0  0  0  0999 V2000
   13.1566   14.3842    3.2040 N   0  0  0  0  0  0  0  0  0  0  0  0
   11.8064   12.7409    2.0543 N   0  0  0  0  0  0  0  0  0  0  0  0
   12.6533   10.5147    2.2505 N   0  0  0  0  0  0  0  0  0  0  0  0
   12.1029   13.9824    2.4686 C   0  0  0  0  0  0  0  0  0  0  0  0
   12.7083   11.8562    2.5011 C   0  0  0  0  0  0  0  0  0  0  0  0
   13.8301   12.1150    3.2728 C   0  0  0  0  0  0  0  0  0  0  0  0
   14.0805   13.4680    3.6026 C   0  0  0  0  0  0  0  0  0  0  0  0
   14.4286   10.8398    3.5519 C   0  0  0  0  0  0  0  0  0  0  0  0
   13.6955    9.8660    2.8707 C   0  0  0  0  0  0  0  0  0  0  0  0
   14.0372    8.5085    2.8897 C   0  0  0  0  0  0  0  0  0  0  0  0
   15.1702    8.1273    3.6242 C   0  0  0  0  0  0  0  0  0  0  0  0
   15.9177    9.0661    4.3413 C   0  0  0  0  0  0  0  0  0  0  0  0
   15.5302   10.4154    4.3247 C   0  0  0  0  0  0  0  0  0  0  0  0
   11.9315   10.0803    1.6964 H   0  0  0  0  0  0  0  0  0  0  0  0
   15.1850   13.8925    4.3221 N   0  0  0  0  0  0  0  0  0  0  0  0
   16.2074   14.6862    3.6437 C   0  0  0  0  0  0  0  0  0  0  0  0
   16.0833   16.1662    4.0124 C   0  0  0  0  0  0  0  0  0  0  0  0
   16.0219   16.3983    5.5288 C   0  0  0  0  0  0  0  0  0  0  0  0
   14.9117   15.5282    6.1384 C   0  0  0  0  0  0  0  0  0  0  0  0
   15.0582   14.0538    5.7660 C   0  0  0  0  0  0  0  0  0  0  0  0
   17.3779   16.1524    6.1973 C   0  0  0  0  0  0  0  0  0  0  0  0
   17.7891    9.7213    5.8017 N   0  0  0  0  0  0  0  0  0  0  0  0
   17.1456    8.7290    5.1195 C   0  0  0  0  0  0  0  0  0  0  0  0
   17.5797    7.5824    5.1672 O   0  0  0  0  0  0  0  0  0  0  0  0
   18.6117    9.4469    6.3236 H   0  0  0  0  0  0  0  0  0  0  0  0
   17.5196   10.6907    5.8180 H   0  0  0  0  0  0  0  0  0  0  0  0
  3  5  1  0  0  0
  4  2  2  0  0  0
  5  6  2  0  0  0
  6  8  1  0  0  0
  7 15  1  0  0  0
  7  1  2  0  0  0
 16 15  1  0  0  0
 16 17  1  0  0  0
 17 18  1  0  0  0
 18 19  1  0  0  0
 18 21  1  0  0  0
 19 20  1  0  0  0
 20 15  1  0  0  0
  9  3  1  0  0  0
  9 10  2  0  0  0
 11 12  2  0  0  0
 12 23  1  0  0  0
 13  8  2  0  0  0
 23 22  1  0  0  0
  4  1  1  0  0  0
  5  2  1  0  0  0
  6  7  1  0  0  0
  8  9  1  0  0  0
 10 11  1  0  0  0
 12 13  1  0  0  0
 23 24  2  0  0  0
  3 14  1  0  0  0
 22 25  1  0  0  0
 22 26  1  0  0  0
M  END
> <minimizedAffinity>
-9.47930

$$$$
CHEMBL3716162


 26 29  0  0  0  0  0  0  0  0999 V2000
   17.5551   11.7307    4.9568 N   0  0  0  0  0  0  0  0  0  0  0  0
   17.3840    9.3230    4.8185 N   0  0  0  0  0  0  0  0  0  0  0  0
   15.3939    8.5763    3.7260 N   0  0  0  0  0  0  0  0  0  0  0  0
   17.9921   10.4722    5.1510 C   0  0  0  0  0  0  0  0  0  0  0  0
   16.2214    9.5567    4.1944 C   0  0  0  0  0  0  0  0  0  0  0  0
   15.6501   10.7877    3.9131 C   0  0  0  0  0  0  0  0  0  0  0  0
   16.3479   11.9337    4.3622 C   0  0  0  0  0  0  0  0  0  0  0  0
   14.4514   10.5141    3.1711 C   0  0  0  0  0  0  0  0  0  0  0  0
   14.2985    9.1277    3.1034 C   0  0  0  0  0  0  0  0  0  0  0  0
   13.2022    8.5153    2.4847 C   0  0  0  0  0  0  0  0  0  0  0  0
   12.2213    9.3434    1.9184 C   0  0  0  0  0  0  0  0  0  0  0  0
   12.3477   10.7355    1.9416 C   0  0  0  0  0  0  0  0  0  0  0  0
   13.4745   11.3166    2.5445 C   0  0  0  0  0  0  0  0  0  0  0  0
   15.5866    7.5913    3.8222 H   0  0  0  0  0  0  0  0  0  0  0  0
   15.8831   13.2285    4.2035 N   0  0  0  0  0  0  0  0  0  0  0  0
   14.7041   13.6529    4.9555 C   0  0  0  0  0  0  0  0  0  0  0  0
   15.1021   14.5261    6.1475 C   0  0  0  0  0  0  0  0  0  0  0  0
   16.0361   15.6795    5.7543 C   0  0  0  0  0  0  0  0  0  0  0  0
   17.2429   15.1245    4.9818 C   0  0  0  0  0  0  0  0  0  0  0  0
   16.8248   14.2631    3.7913 C   0  0  0  0  0  0  0  0  0  0  0  0
   15.2981   16.7654    4.9655 C   0  0  0  0  0  0  0  0  0  0  0  0
   11.5227   13.0154    1.5107 N   0  0  0  0  0  0  0  0  0  0  0  0
   11.3284   11.6703    1.3807 C   0  0  0  0  0  0  0  0  0  0  0  0
   10.3306   11.2566    0.7989 O   0  0  0  0  0  0  0  0  0  0  0  0
   10.8120   13.6127    1.1076 H   0  0  0  0  0  0  0  0  0  0  0  0
   12.2999   13.4526    1.9770 H   0  0  0  0  0  0  0  0  0  0  0  0
  3  5  1  0  0  0
  4  2  2  0  0  0
  5  6  2  0  0  0
  6  8  1  0  0  0
  7 15  1  0  0  0
  7  1  2  0  0  0
 16 15  1  0  0  0
 16 17  1  0  0  0
 17 18  1  0  0  0
 18 19  1  0  0  0
 18 21  1  0  0  0
 19 20  1  0  0  0
 20 15  1  0  0  0
  9  3  1  0  0  0
  9 10  2  0  0  0
 11 12  2  0  0  0
 12 23  1  0  0  0
 13  8  2  0  0  0
 23 22  1  0  0  0
  4  1  1  0  0  0
  5  2  1  0  0  0
  6  7  1  0  0  0
  8  9  1  0  0  0
 10 11  1  0  0  0
 12 13  1  0  0  0
 23 24  2  0  0  0
  3 14  1  0  0  0
 22 25  1  0  0  0
 22 26  1  0  0  0
M  END
> <minimizedAffinity>
-9.00846

$$$$
CHEMBL3716162


 26 29  0  0  0  0  0  0  0  0999 V2000
   15.2277   15.6347    4.5408 N   0  0  0  0  0  0  0  0  0  0  0  0
   13.2034   16.3018    3.3994 N   0  0  0  0  0  0  0  0  0  0  0  0
   12.0576   14.4797    2.3608 N   0  0  0  0  0  0  0  0  0  0  0  0
   14.2995   16.5242    4.1413 C   0  0  0  0  0  0  0  0  0  0  0  0
   13.0854   15.0027    3.0926 C   0  0  0  0  0  0  0  0  0  0  0  0
   13.9470   13.9743    3.4404 C   0  0  0  0  0  0  0  0  0  0  0  0
   15.1042   14.3303    4.1727 C   0  0  0  0  0  0  0  0  0  0  0  0
   13.3507   12.7656    2.9447 C   0  0  0  0  0  0  0  0  0  0  0  0
   12.1947   13.1162    2.2442 C   0  0  0  0  0  0  0  0  0  0  0  0
   11.3906   12.1758    1.5894 C   0  0  0  0  0  0  0  0  0  0  0  0
   11.7794   10.8288    1.6439 C   0  0  0  0  0  0  0  0  0  0  0  0
   12.9153   10.4312    2.3553 C   0  0  0  0  0  0  0  0  0  0  0  0
   13.6832   11.3968    3.0253 C   0  0  0  0  0  0  0  0  0  0  0  0
   11.3057   15.0337    1.9806 H   0  0  0  0  0  0  0  0  0  0  0  0
   16.0839   13.4271    4.5498 N   0  0  0  0  0  0  0  0  0  0  0  0
   17.0200   12.9381    3.5398 C   0  0  0  0  0  0  0  0  0  0  0  0
   18.3784   13.6300    3.6740 C   0  0  0  0  0  0  0  0  0  0  0  0
   18.9302   13.5843    5.1060 C   0  0  0  0  0  0  0  0  0  0  0  0
   17.8754   14.1285    6.0820 C   0  0  0  0  0  0  0  0  0  0  0  0
   16.5298   13.4195    5.9383 C   0  0  0  0  0  0  0  0  0  0  0  0
   19.3984   12.1776    5.4906 C   0  0  0  0  0  0  0  0  0  0  0  0
   14.4635    8.7269    3.2283 N   0  0  0  0  0  0  0  0  0  0  0  0
   13.3955    9.0203    2.4300 C   0  0  0  0  0  0  0  0  0  0  0  0
   12.8460    8.1219    1.8004 O   0  0  0  0  0  0  0  0  0  0  0  0
   14.7496    7.7565    3.2567 H   0  0  0  0  0  0  0  0  0  0  0  0
   14.9864    9.3909    3.7745 H   0  0  0  0  0  0  0  0  0  0  0  0
  3  5  1  0  0  0
  4  2  2  0  0  0
  5  6  2  0  0  0
  6  8  1  0  0  0
  7 15  1  0  0  0
  7  1  2  0  0  0
 16 15  1  0  0  0
 16 17  1  0  0  0
 17 18  1  0  0  0
 18 19  1  0  0  0
 18 21  1  0  0  0
 19 20  1  0  0  0
 20 15  1  0  0  0
  9  3  1  0  0  0
  9 10  2  0  0  0
 11 12  2  0  0  0
 12 23  1  0  0  0
 13  8  2  0  0  0
 23 22  1  0  0  0
  4  1  1  0  0  0
  5  2  1  0  0  0
  6  7  1  0  0  0
  8  9  1  0  0  0
 10 11  1  0  0  0
 12 13  1  0  0  0
 23 24  2  0  0  0
  3 14  1  0  0  0
 22 25  1  0  0  0
 22 26  1  0  0  0
M  END
> <minimizedAffinity>
-8.66786

$$$$
CHEMBL3716162


 26 29  0  0  0  0  0  0  0  0999 V2000
   18.3149   13.7137    5.3531 N   0  0  0  0  0  0  0  0  0  0  0  0
   19.4202   11.5833    5.6444 N   0  0  0  0  0  0  0  0  0  0  0  0
   18.0770    9.7211    4.9813 N   0  0  0  0  0  0  0  0  0  0  0  0
   19.3502   12.9226    5.6917 C   0  0  0  0  0  0  0  0  0  0  0  0
   18.2866   11.0590    5.1589 C   0  0  0  0  0  0  0  0  0  0  0  0
   17.1482   11.7406    4.7586 C   0  0  0  0  0  0  0  0  0  0  0  0
   17.1601   13.1476    4.9079 C   0  0  0  0  0  0  0  0  0  0  0  0
   16.2444   10.7482    4.2480 C   0  0  0  0  0  0  0  0  0  0  0  0
   16.8350    9.4967    4.4349 C   0  0  0  0  0  0  0  0  0  0  0  0
   16.1994    8.2990    4.0868 C   0  0  0  0  0  0  0  0  0  0  0  0
   14.9125    8.3760    3.5330 C   0  0  0  0  0  0  0  0  0  0  0  0
   14.2949    9.6093    3.3054 C   0  0  0  0  0  0  0  0  0  0  0  0
   14.9724   10.7928    3.6391 C   0  0  0  0  0  0  0  0  0  0  0  0
   18.7583    9.0146    5.2128 H   0  0  0  0  0  0  0  0  0  0  0  0
   16.0833   13.9627    4.6016 N   0  0  0  0  0  0  0  0  0  0  0  0
   15.0633   14.1981    5.6213 C   0  0  0  0  0  0  0  0  0  0  0  0
   15.2300   15.5829    6.2508 C   0  0  0  0  0  0  0  0  0  0  0  0
   15.3333   16.7028    5.2057 C   0  0  0  0  0  0  0  0  0  0  0  0
   16.4376   16.3621    4.1930 C   0  0  0  0  0  0  0  0  0  0  0  0
   16.2485   14.9800    3.5698 C   0  0  0  0  0  0  0  0  0  0  0  0
   13.9885   16.9690    4.5224 C   0  0  0  0  0  0  0  0  0  0  0  0
   12.3558   10.9998    2.6965 N   0  0  0  0  0  0  0  0  0  0  0  0
   12.9199    9.7574    2.7445 C   0  0  0  0  0  0  0  0  0  0  0  0
   12.2942    8.7920    2.3179 O   0  0  0  0  0  0  0  0  0  0  0  0
   11.4263   11.0558    2.2999 H   0  0  0  0  0  0  0  0  0  0  0  0
   12.7810   11.8493    3.0284 H   0  0  0  0  0  0  0  0  0  0  0  0
  3  5  1  0  0  0
  4  2  2  0  0  0
  5  6  2  0  0  0
  6  8  1  0  0  0
  7 15  1  0  0  0
  7  1  2  0  0  0
 16 15  1  0  0  0
 16 17  1  0  0  0
 17 18  1  0  0  0
 18 19  1  0  0  0
 18 21  1  0  0  0
 19 20  1  0  0  0
 20 15  1  0  0  0
  9  3  1  0  0  0
  9 10  2  0  0  0
 11 12  2  0  0  0
 12 23  1  0  0  0
 13  8  2  0  0  0
 23 22  1  0  0  0
  4  1  1  0  0  0
  5  2  1  0  0  0
  6  7  1  0  0  0
  8  9  1  0  0  0
 10 11  1  0  0  0
 12 13  1  0  0  0
 23 24  2  0  0  0
  3 14  1  0  0  0
 22 25  1  0  0  0
 22 26  1  0  0  0
M  END
> <minimizedAffinity>
-8.65942

$$$$
CHEMBL3716162


 26 29  0  0  0  0  0  0  0  0999 V2000
   12.5625   14.0763    2.7002 N   0  0  0  0  0  0  0  0  0  0  0  0
   11.4347   12.0463    2.0273 N   0  0  0  0  0  0  0  0  0  0  0  0
   12.6872   10.0663    2.4989 N   0  0  0  0  0  0  0  0  0  0  0  0
   11.5368   13.3756    2.1811 C   0  0  0  0  0  0  0  0  0  0  0  0
   12.5196   11.4218    2.5054 C   0  0  0  0  0  0  0  0  0  0  0  0
   13.6414   12.0021    3.0762 C   0  0  0  0  0  0  0  0  0  0  0  0
   13.6704   13.4155    3.1339 C   0  0  0  0  0  0  0  0  0  0  0  0
   14.4852   10.9182    3.4953 C   0  0  0  0  0  0  0  0  0  0  0  0
   13.8824    9.7262    3.0883 C   0  0  0  0  0  0  0  0  0  0  0  0
   14.4658    8.4712    3.2991 C   0  0  0  0  0  0  0  0  0  0  0  0
   15.7117    8.4266    3.9428 C   0  0  0  0  0  0  0  0  0  0  0  0
   16.3382    9.5940    4.3891 C   0  0  0  0  0  0  0  0  0  0  0  0
   15.7117   10.8341    4.1877 C   0  0  0  0  0  0  0  0  0  0  0  0
   12.0089    9.4226    2.1216 H   0  0  0  0  0  0  0  0  0  0  0  0
   14.7403   14.1433    3.6272 N   0  0  0  0  0  0  0  0  0  0  0  0
   14.9006   14.2705    5.0742 C   0  0  0  0  0  0  0  0  0  0  0  0
   16.0042   13.3415    5.5849 C   0  0  0  0  0  0  0  0  0  0  0  0
   17.3154   13.4876    4.7996 C   0  0  0  0  0  0  0  0  0  0  0  0
   17.0366   13.3264    3.2971 C   0  0  0  0  0  0  0  0  0  0  0  0
   15.9386   14.2680    2.8054 C   0  0  0  0  0  0  0  0  0  0  0  0
   18.0230   14.8090    5.1148 C   0  0  0  0  0  0  0  0  0  0  0  0
   17.7700    9.2048    6.3544 N   0  0  0  0  0  0  0  0  0  0  0  0
   17.6730    9.6159    5.0561 C   0  0  0  0  0  0  0  0  0  0  0  0
   18.6811    9.9834    4.4610 O   0  0  0  0  0  0  0  0  0  0  0  0
   18.6951    9.2268    6.7644 H   0  0  0  0  0  0  0  0  0  0  0  0
   17.0044    8.8958    6.9297 H   0  0  0  0  0  0  0  0  0  0  0  0
  3  5  1  0  0  0
  4  2  2  0  0  0
  5  6  2  0  0  0
  6  8  1  0  0  0
  7 15  1  0  0  0
  7  1  2  0  0  0
 16 15  1  0  0  0
 16 17  1  0  0  0
 17 18  1  0  0  0
 18 19  1  0  0  0
 18 21  1  0  0  0
 19 20  1  0  0  0
 20 15  1  0  0  0
  9  3  1  0  0  0
  9 10  2  0  0  0
 11 12  2  0  0  0
 12 23  1  0  0  0
 13  8  2  0  0  0
 23 22  1  0  0  0
  4  1  1  0  0  0
  5  2  1  0  0  0
  6  7  1  0  0  0
  8  9  1  0  0  0
 10 11  1  0  0  0
 12 13  1  0  0  0
 23 24  2  0  0  0
  3 14  1  0  0  0
 22 25  1  0  0  0
 22 26  1  0  0  0
M  END
> <minimizedAffinity>
-8.61643

$$$$
CHEMBL3716162


 26 29  0  0  0  0  0  0  0  0999 V2000
   13.2721   11.6029    2.6520 N   0  0  0  0  0  0  0  0  0  0  0  0
   12.9207    9.2814    2.0754 N   0  0  0  0  0  0  0  0  0  0  0  0
   14.5298    7.8090    3.0525 N   0  0  0  0  0  0  0  0  0  0  0  0
   12.6187   10.5888    2.0544 C   0  0  0  0  0  0  0  0  0  0  0  0
   14.0009    9.0491    2.8337 C   0  0  0  0  0  0  0  0  0  0  0  0
   14.7656    9.9815    3.5169 C   0  0  0  0  0  0  0  0  0  0  0  0
   14.3935   11.3394    3.3766 C   0  0  0  0  0  0  0  0  0  0  0  0
   15.7587    9.2358    4.2380 C   0  0  0  0  0  0  0  0  0  0  0  0
   15.6108    7.8892    3.8991 C   0  0  0  0  0  0  0  0  0  0  0  0
   16.4532    6.8862    4.3931 C   0  0  0  0  0  0  0  0  0  0  0  0
   17.4887    7.2671    5.2598 C   0  0  0  0  0  0  0  0  0  0  0  0
   17.6570    8.6004    5.6449 C   0  0  0  0  0  0  0  0  0  0  0  0
   16.7761    9.5772    5.1540 C   0  0  0  0  0  0  0  0  0  0  0  0
   14.1546    6.9641    2.6500 H   0  0  0  0  0  0  0  0  0  0  0  0
   15.0865   12.3903    3.9538 N   0  0  0  0  0  0  0  0  0  0  0  0
   16.4289   12.7024    3.4681 C   0  0  0  0  0  0  0  0  0  0  0  0
   16.4084   13.9343    2.5604 C   0  0  0  0  0  0  0  0  0  0  0  0
   15.6846   15.1297    3.1963 C   0  0  0  0  0  0  0  0  0  0  0  0
   14.2850   14.6970    3.6601 C   0  0  0  0  0  0  0  0  0  0  0  0
   14.3278   13.4717    4.5717 C   0  0  0  0  0  0  0  0  0  0  0  0
   16.5015   15.7497    4.3340 C   0  0  0  0  0  0  0  0  0  0  0  0
   19.2817   10.3152    6.3404 N   0  0  0  0  0  0  0  0  0  0  0  0
   18.7524    9.0728    6.5415 C   0  0  0  0  0  0  0  0  0  0  0  0
   19.1768    8.3754    7.4574 O   0  0  0  0  0  0  0  0  0  0  0  0
   20.0155   10.5989    6.9771 H   0  0  0  0  0  0  0  0  0  0  0  0
   19.0106   10.9568    5.6142 H   0  0  0  0  0  0  0  0  0  0  0  0
  3  5  1  0  0  0
  4  2  2  0  0  0
  5  6  2  0  0  0
  6  8  1  0  0  0
  7 15  1  0  0  0
  7  1  2  0  0  0
 16 15  1  0  0  0
 16 17  1  0  0  0
 17 18  1  0  0  0
 18 19  1  0  0  0
 18 21  1  0  0  0
 19 20  1  0  0  0
 20 15  1  0  0  0
  9  3  1  0  0  0
  9 10  2  0  0  0
 11 12  2  0  0  0
 12 23  1  0  0  0
 13  8  2  0  0  0
 23 22  1  0  0  0
  4  1  1  0  0  0
  5  2  1  0  0  0
  6  7  1  0  0  0
  8  9  1  0  0  0
 10 11  1  0  0  0
 12 13  1  0  0  0
 23 24  2  0  0  0
  3 14  1  0  0  0
 22 25  1  0  0  0
 22 26  1  0  0  0
M  END
> <minimizedAffinity>
-8.58430

$$$$
CHEMBL3716162


 26 29  0  0  0  0  0  0  0  0999 V2000
   17.0596   13.0777    4.4717 N   0  0  0  0  0  0  0  0  0  0  0  0
   19.0017   14.3716    5.1038 N   0  0  0  0  0  0  0  0  0  0  0  0
   18.4859   16.6320    5.6834 N   0  0  0  0  0  0  0  0  0  0  0  0
   18.3722   13.2519    4.7152 C   0  0  0  0  0  0  0  0  0  0  0  0
   18.1330   15.3775    5.2746 C   0  0  0  0  0  0  0  0  0  0  0  0
   16.7615   15.3475    5.0773 C   0  0  0  0  0  0  0  0  0  0  0  0
   16.2098   14.1317    4.6088 C   0  0  0  0  0  0  0  0  0  0  0  0
   16.2717   16.6411    5.4633 C   0  0  0  0  0  0  0  0  0  0  0  0
   17.3727   17.4314    5.7998 C   0  0  0  0  0  0  0  0  0  0  0  0
   17.2545   18.7731    6.1811 C   0  0  0  0  0  0  0  0  0  0  0  0
   15.9692   19.3345    6.2162 C   0  0  0  0  0  0  0  0  0  0  0  0
   14.8376   18.5721    5.9116 C   0  0  0  0  0  0  0  0  0  0  0  0
   14.9892   17.2211    5.5613 C   0  0  0  0  0  0  0  0  0  0  0  0
   19.4357   16.9075    5.8803 H   0  0  0  0  0  0  0  0  0  0  0  0
   14.8674   13.9588    4.3157 N   0  0  0  0  0  0  0  0  0  0  0  0
   14.2903   14.6906    3.1902 C   0  0  0  0  0  0  0  0  0  0  0  0
   14.1094   13.7740    1.9781 C   0  0  0  0  0  0  0  0  0  0  0  0
   13.3664   12.4748    2.3206 C   0  0  0  0  0  0  0  0  0  0  0  0
   14.0591   11.7821    3.5045 C   0  0  0  0  0  0  0  0  0  0  0  0
   14.2223   12.7107    4.7067 C   0  0  0  0  0  0  0  0  0  0  0  0
   11.8793   12.7240    2.5897 C   0  0  0  0  0  0  0  0  0  0  0  0
   12.6040   18.7851    6.9262 N   0  0  0  0  0  0  0  0  0  0  0  0
   13.4480   19.1162    5.9054 C   0  0  0  0  0  0  0  0  0  0  0  0
   13.0546   19.8597    5.0122 O   0  0  0  0  0  0  0  0  0  0  0  0
   11.6744   19.1837    6.8874 H   0  0  0  0  0  0  0  0  0  0  0  0
   12.8268   18.1776    7.6969 H   0  0  0  0  0  0  0  0  0  0  0  0
  3  5  1  0  0  0
  4  2  2  0  0  0
  5  6  2  0  0  0
  6  8  1  0  0  0
  7 15  1  0  0  0
  7  1  2  0  0  0
 16 15  1  0  0  0
 16 17  1  0  0  0
 17 18  1  0  0  0
 18 19  1  0  0  0
 18 21  1  0  0  0
 19 20  1  0  0  0
 20 15  1  0  0  0
  9  3  1  0  0  0
  9 10  2  0  0  0
 11 12  2  0  0  0
 12 23  1  0  0  0
 13  8  2  0  0  0
 23 22  1  0  0  0
  4  1  1  0  0  0
  5  2  1  0  0  0
  6  7  1  0  0  0
  8  9  1  0  0  0
 10 11  1  0  0  0
 12 13  1  0  0  0
 23 24  2  0  0  0
  3 14  1  0  0  0
 22 25  1  0  0  0
 22 26  1  0  0  0
M  END
> <minimizedAffinity>
-8.14182

$$$$
CHEMBL3716162


 26 29  0  0  0  0  0  0  0  0999 V2000
   16.5646   16.2618    5.1314 N   0  0  0  0  0  0  0  0  0  0  0  0
   14.4992   16.4163    3.8843 N   0  0  0  0  0  0  0  0  0  0  0  0
   13.6335   14.2904    3.2190 N   0  0  0  0  0  0  0  0  0  0  0  0
   15.5365   16.9236    4.5681 C   0  0  0  0  0  0  0  0  0  0  0  0
   14.5634   15.0787    3.8348 C   0  0  0  0  0  0  0  0  0  0  0  0
   15.5454   14.2629    4.3743 C   0  0  0  0  0  0  0  0  0  0  0  0
   16.6257   14.9066    5.0229 C   0  0  0  0  0  0  0  0  0  0  0  0
   15.1284   12.9120    4.1225 C   0  0  0  0  0  0  0  0  0  0  0  0
   13.9542   12.9613    3.3684 C   0  0  0  0  0  0  0  0  0  0  0  0
   13.2997   11.8124    2.9087 C   0  0  0  0  0  0  0  0  0  0  0  0
   13.8632   10.5663    3.2225 C   0  0  0  0  0  0  0  0  0  0  0  0
   15.0235   10.4707    3.9964 C   0  0  0  0  0  0  0  0  0  0  0  0
   15.6384   11.6421    4.4662 C   0  0  0  0  0  0  0  0  0  0  0  0
   12.8243   14.6538    2.7394 H   0  0  0  0  0  0  0  0  0  0  0  0
   17.7072   14.2340    5.5668 N   0  0  0  0  0  0  0  0  0  0  0  0
   18.7174   13.6783    4.6689 C   0  0  0  0  0  0  0  0  0  0  0  0
   19.9717   14.5548    4.6492 C   0  0  0  0  0  0  0  0  0  0  0  0
   20.4982   14.8714    6.0563 C   0  0  0  0  0  0  0  0  0  0  0  0
   19.3639   15.4583    6.9106 C   0  0  0  0  0  0  0  0  0  0  0  0
   18.1246   14.5649    6.9244 C   0  0  0  0  0  0  0  0  0  0  0  0
   21.1379   13.6447    6.7137 C   0  0  0  0  0  0  0  0  0  0  0  0
   16.8152    9.1995    5.1089 N   0  0  0  0  0  0  0  0  0  0  0  0
   15.6856    9.1789    4.3424 C   0  0  0  0  0  0  0  0  0  0  0  0
   15.2314    8.1040    3.9632 O   0  0  0  0  0  0  0  0  0  0  0  0
   17.2259    8.3007    5.3275 H   0  0  0  0  0  0  0  0  0  0  0  0
   17.2700   10.0258    5.4598 H   0  0  0  0  0  0  0  0  0  0  0  0
  3  5  1  0  0  0
  4  2  2  0  0  0
  5  6  2  0  0  0
  6  8  1  0  0  0
  7 15  1  0  0  0
  7  1  2  0  0  0
 16 15  1  0  0  0
 16 17  1  0  0  0
 17 18  1  0  0  0
 18 19  1  0  0  0
 18 21  1  0  0  0
 19 20  1  0  0  0
 20 15  1  0  0  0
  9  3  1  0  0  0
  9 10  2  0  0  0
 11 12  2  0  0  0
 12 23  1  0  0  0
 13  8  2  0  0  0
 23 22  1  0  0  0
  4  1  1  0  0  0
  5  2  1  0  0  0
  6  7  1  0  0  0
  8  9  1  0  0  0
 10 11  1  0  0  0
 12 13  1  0  0  0
 23 24  2  0  0  0
  3 14  1  0  0  0
 22 25  1  0  0  0
 22 26  1  0  0  0
M  END
> <minimizedAffinity>
-7.88706

$$$$
CHEMBL3715037


 27 30  0  0  0  0  0  0  0  0999 V2000
   17.4083   10.3006    5.4898 N   0  0  0  0  0  0  0  0  0  0  0  0
   16.8838    8.0335    4.8357 N   0  0  0  0  0  0  0  0  0  0  0  0
   14.9898    7.8792    3.3845 N   0  0  0  0  0  0  0  0  0  0  0  0
   17.5882    8.9662    5.4947 C   0  0  0  0  0  0  0  0  0  0  0  0
   15.8857    8.5881    4.1344 C   0  0  0  0  0  0  0  0  0  0  0  0
   15.5750    9.9355    4.0375 C   0  0  0  0  0  0  0  0  0  0  0  0
   16.4137   10.8370    4.7335 C   0  0  0  0  0  0  0  0  0  0  0  0
   14.3875   10.0149    3.2373 C   0  0  0  0  0  0  0  0  0  0  0  0
   14.0586    8.7224    2.8247 C   0  0  0  0  0  0  0  0  0  0  0  0
   12.9538    8.4461    2.0106 C   0  0  0  0  0  0  0  0  0  0  0  0
   12.1584    9.5269    1.6046 C   0  0  0  0  0  0  0  0  0  0  0  0
   12.4395   10.8352    2.0105 C   0  0  0  0  0  0  0  0  0  0  0  0
   13.5399   11.0706    2.8422 C   0  0  0  0  0  0  0  0  0  0  0  0
   15.0090    6.8751    3.2916 H   0  0  0  0  0  0  0  0  0  0  0  0
   16.2808   12.2174    4.6945 N   0  0  0  0  0  0  0  0  0  0  0  0
   15.1915   12.8325    5.4397 C   0  0  0  0  0  0  0  0  0  0  0  0
   14.3369   13.7192    4.5473 C   0  0  0  0  0  0  0  0  0  0  0  0
   15.2073   14.7503    3.8472 C   0  0  0  0  0  0  0  0  0  0  0  0
   16.2627   14.0558    2.9962 C   0  0  0  0  0  0  0  0  0  0  0  0
   17.0734   12.9611    3.7114 C   0  0  0  0  0  0  0  0  0  0  0  0
   18.4030   13.4503    4.3252 C   0  0  0  0  0  0  0  0  0  0  0  0
   18.3835   13.8788    5.7830 C   0  0  0  0  0  0  0  0  0  0  0  0
   11.7941   13.2121    1.9788 N   0  0  0  0  0  0  0  0  0  0  0  0
   11.5487   11.9376    1.5439 C   0  0  0  0  0  0  0  0  0  0  0  0
   10.6178   11.7252    0.7745 O   0  0  0  0  0  0  0  0  0  0  0  0
   11.1734   13.9360    1.6404 H   0  0  0  0  0  0  0  0  0  0  0  0
   12.5421   13.4900    2.5928 H   0  0  0  0  0  0  0  0  0  0  0  0
  3  5  1  0  0  0
  4  2  2  0  0  0
  5  6  2  0  0  0
  6  8  1  0  0  0
  7 15  1  0  0  0
  7  1  2  0  0  0
 16 15  1  0  0  0
 16 17  1  0  0  0
 17 18  1  0  0  0
 18 19  1  0  0  0
 19 20  1  0  0  0
 20 21  1  0  0  0
 20 15  1  0  0  0
 21 22  1  0  0  0
  9  3  1  0  0  0
  9 10  2  0  0  0
 11 12  2  0  0  0
 12 24  1  0  0  0
 13  8  2  0  0  0
 24 23  1  0  0  0
  4  1  1  0  0  0
  5  2  1  0  0  0
  6  7  1  0  0  0
  8  9  1  0  0  0
 10 11  1  0  0  0
 12 13  1  0  0  0
 24 25  2  0  0  0
  3 14  1  0  0  0
 23 26  1  0  0  0
 23 27  1  0  0  0
M  END
> <minimizedAffinity>
-9.36894

$$$$
CHEMBL3715037


 27 30  0  0  0  0  0  0  0  0999 V2000
   13.0980   13.8485    3.0093 N   0  0  0  0  0  0  0  0  0  0  0  0
   11.9771   11.8730    2.1820 N   0  0  0  0  0  0  0  0  0  0  0  0
   13.1163    9.8409    2.7199 N   0  0  0  0  0  0  0  0  0  0  0  0
   12.1215   13.1965    2.3501 C   0  0  0  0  0  0  0  0  0  0  0  0
   12.9869   11.2009    2.7515 C   0  0  0  0  0  0  0  0  0  0  0  0
   14.0581   11.7308    3.4538 C   0  0  0  0  0  0  0  0  0  0  0  0
   14.0856   13.1358    3.6140 C   0  0  0  0  0  0  0  0  0  0  0  0
   14.8991   10.6209    3.7967 C   0  0  0  0  0  0  0  0  0  0  0  0
   14.2771    9.4543    3.3482 C   0  0  0  0  0  0  0  0  0  0  0  0
   14.8290    8.1817    3.5375 C   0  0  0  0  0  0  0  0  0  0  0  0
   16.0579    8.0988    4.2074 C   0  0  0  0  0  0  0  0  0  0  0  0
   16.7252    9.2428    4.6559 C   0  0  0  0  0  0  0  0  0  0  0  0
   16.1535   10.4997    4.4296 C   0  0  0  0  0  0  0  0  0  0  0  0
   12.4563    9.2266    2.2680 H   0  0  0  0  0  0  0  0  0  0  0  0
   15.0502   13.8213    4.3381 N   0  0  0  0  0  0  0  0  0  0  0  0
   14.8581   13.9843    5.7722 C   0  0  0  0  0  0  0  0  0  0  0  0
   14.9339   15.4470    6.1820 C   0  0  0  0  0  0  0  0  0  0  0  0
   16.2424   16.0563    5.7054 C   0  0  0  0  0  0  0  0  0  0  0  0
   16.3464   15.9572    4.1889 C   0  0  0  0  0  0  0  0  0  0  0  0
   16.0740   14.5635    3.5972 C   0  0  0  0  0  0  0  0  0  0  0  0
   17.3381   13.7031    3.3831 C   0  0  0  0  0  0  0  0  0  0  0  0
   18.2368   13.4708    4.5862 C   0  0  0  0  0  0  0  0  0  0  0  0
   18.0328    8.9050    6.7158 N   0  0  0  0  0  0  0  0  0  0  0  0
   18.0318    9.0815    5.3585 C   0  0  0  0  0  0  0  0  0  0  0  0
   19.0933    9.0909    4.7447 O   0  0  0  0  0  0  0  0  0  0  0  0
   18.9353    8.7952    7.1599 H   0  0  0  0  0  0  0  0  0  0  0  0
   17.2166    8.8633    7.3039 H   0  0  0  0  0  0  0  0  0  0  0  0
  3  5  1  0  0  0
  4  2  2  0  0  0
  5  6  2  0  0  0
  6  8  1  0  0  0
  7 15  1  0  0  0
  7  1  2  0  0  0
 16 15  1  0  0  0
 16 17  1  0  0  0
 17 18  1  0  0  0
 18 19  1  0  0  0
 19 20  1  0  0  0
 20 21  1  0  0  0
 20 15  1  0  0  0
 21 22  1  0  0  0
  9  3  1  0  0  0
  9 10  2  0  0  0
 11 12  2  0  0  0
 12 24  1  0  0  0
 13  8  2  0  0  0
 24 23  1  0  0  0
  4  1  1  0  0  0
  5  2  1  0  0  0
  6  7  1  0  0  0
  8  9  1  0  0  0
 10 11  1  0  0  0
 12 13  1  0  0  0
 24 25  2  0  0  0
  3 14  1  0  0  0
 23 26  1  0  0  0
 23 27  1  0  0  0
M  END
> <minimizedAffinity>
-9.28021

$$$$
CHEMBL3715037


 27 30  0  0  0  0  0  0  0  0999 V2000
   12.9663   14.1717    2.7868 N   0  0  0  0  0  0  0  0  0  0  0  0
   11.6409   12.2141    2.2828 N   0  0  0  0  0  0  0  0  0  0  0  0
   12.7382   10.1603    2.8258 N   0  0  0  0  0  0  0  0  0  0  0  0
   11.8752   13.5348    2.3212 C   0  0  0  0  0  0  0  0  0  0  0  0
   12.6844   11.5244    2.7634 C   0  0  0  0  0  0  0  0  0  0  0  0
   13.8690   12.0371    3.2688 C   0  0  0  0  0  0  0  0  0  0  0  0
   13.9908   13.4457    3.3085 C   0  0  0  0  0  0  0  0  0  0  0  0
   14.6915   10.9054    3.5842 C   0  0  0  0  0  0  0  0  0  0  0  0
   13.9540    9.7498    3.3207 C   0  0  0  0  0  0  0  0  0  0  0  0
   14.4609    8.4628    3.5368 C   0  0  0  0  0  0  0  0  0  0  0  0
   15.7653    8.3534    4.0389 C   0  0  0  0  0  0  0  0  0  0  0  0
   16.5466    9.4837    4.2981 C   0  0  0  0  0  0  0  0  0  0  0  0
   16.0142   10.7536    4.0495 C   0  0  0  0  0  0  0  0  0  0  0  0
   11.9909    9.5565    2.5189 H   0  0  0  0  0  0  0  0  0  0  0  0
   15.0810   14.1215    3.8372 N   0  0  0  0  0  0  0  0  0  0  0  0
   16.2619   14.2964    3.0035 C   0  0  0  0  0  0  0  0  0  0  0  0
   17.5125   13.7715    3.6916 C   0  0  0  0  0  0  0  0  0  0  0  0
   17.6714   14.4233    5.0556 C   0  0  0  0  0  0  0  0  0  0  0  0
   16.4588   14.1209    5.9267 C   0  0  0  0  0  0  0  0  0  0  0  0
   15.0922   14.3976    5.2765 C   0  0  0  0  0  0  0  0  0  0  0  0
   14.5137   15.7969    5.5783 C   0  0  0  0  0  0  0  0  0  0  0  0
   15.1521   16.5880    6.7077 C   0  0  0  0  0  0  0  0  0  0  0  0
   18.1572    8.2862    5.7262 N   0  0  0  0  0  0  0  0  0  0  0  0
   17.9285    9.2938    4.8284 C   0  0  0  0  0  0  0  0  0  0  0  0
   18.8561   10.0097    4.4669 O   0  0  0  0  0  0  0  0  0  0  0  0
   19.1058    8.1831    6.0628 H   0  0  0  0  0  0  0  0  0  0  0  0
   17.4687    7.6360    6.0682 H   0  0  0  0  0  0  0  0  0  0  0  0
  3  5  1  0  0  0
  4  2  2  0  0  0
  5  6  2  0  0  0
  6  8  1  0  0  0
  7 15  1  0  0  0
  7  1  2  0  0  0
 16 15  1  0  0  0
 16 17  1  0  0  0
 17 18  1  0  0  0
 18 19  1  0  0  0
 19 20  1  0  0  0
 20 21  1  0  0  0
 20 15  1  0  0  0
 21 22  1  0  0  0
  9  3  1  0  0  0
  9 10  2  0  0  0
 11 12  2  0  0  0
 12 24  1  0  0  0
 13  8  2  0  0  0
 24 23  1  0  0  0
  4  1  1  0  0  0
  5  2  1  0  0  0
  6  7  1  0  0  0
  8  9  1  0  0  0
 10 11  1  0  0  0
 12 13  1  0  0  0
 24 25  2  0  0  0
  3 14  1  0  0  0
 23 26  1  0  0  0
 23 27  1  0  0  0
M  END
> <minimizedAffinity>
-8.80638

$$$$
CHEMBL3715037


 27 30  0  0  0  0  0  0  0  0999 V2000
   12.7083   13.3285    2.8709 N   0  0  0  0  0  0  0  0  0  0  0  0
   12.2306   10.9833    2.5319 N   0  0  0  0  0  0  0  0  0  0  0  0
   13.9725    9.5392    3.3047 N   0  0  0  0  0  0  0  0  0  0  0  0
   11.9589   12.2944    2.4440 C   0  0  0  0  0  0  0  0  0  0  0  0
   13.4237   10.7747    3.1051 C   0  0  0  0  0  0  0  0  0  0  0  0
   14.3032   11.7320    3.5862 C   0  0  0  0  0  0  0  0  0  0  0  0
   13.8948   13.0826    3.4880 C   0  0  0  0  0  0  0  0  0  0  0  0
   15.4642   11.0188    4.0336 C   0  0  0  0  0  0  0  0  0  0  0  0
   15.2216    9.6539    3.8685 C   0  0  0  0  0  0  0  0  0  0  0  0
   16.1530    8.6713    4.2248 C   0  0  0  0  0  0  0  0  0  0  0  0
   17.3731    9.0980    4.7679 C   0  0  0  0  0  0  0  0  0  0  0  0
   17.6658   10.4555    4.9323 C   0  0  0  0  0  0  0  0  0  0  0  0
   16.7190   11.4100    4.5447 C   0  0  0  0  0  0  0  0  0  0  0  0
   13.5201    8.6771    3.0410 H   0  0  0  0  0  0  0  0  0  0  0  0
   14.6252   14.1575    3.9737 N   0  0  0  0  0  0  0  0  0  0  0  0
   15.1504   14.0856    5.3298 C   0  0  0  0  0  0  0  0  0  0  0  0
   14.7150   15.2830    6.1603 C   0  0  0  0  0  0  0  0  0  0  0  0
   15.1070   16.5745    5.4609 C   0  0  0  0  0  0  0  0  0  0  0  0
   14.4460   16.6512    4.0906 C   0  0  0  0  0  0  0  0  0  0  0  0
   14.6148   15.4049    3.2045 C   0  0  0  0  0  0  0  0  0  0  0  0
   15.8144   15.4695    2.2345 C   0  0  0  0  0  0  0  0  0  0  0  0
   15.6694   14.7643    0.8964 C   0  0  0  0  0  0  0  0  0  0  0  0
   19.3703   10.2791    6.7018 N   0  0  0  0  0  0  0  0  0  0  0  0
   18.9857   10.8389    5.5134 C   0  0  0  0  0  0  0  0  0  0  0  0
   19.7299   11.6292    4.9433 O   0  0  0  0  0  0  0  0  0  0  0  0
   20.2722   10.5582    7.0657 H   0  0  0  0  0  0  0  0  0  0  0  0
   18.8407    9.6086    7.2345 H   0  0  0  0  0  0  0  0  0  0  0  0
  3  5  1  0  0  0
  4  2  2  0  0  0
  5  6  2  0  0  0
  6  8  1  0  0  0
  7 15  1  0  0  0
  7  1  2  0  0  0
 16 15  1  0  0  0
 16 17  1  0  0  0
 17 18  1  0  0  0
 18 19  1  0  0  0
 19 20  1  0  0  0
 20 21  1  0  0  0
 20 15  1  0  0  0
 21 22  1  0  0  0
  9  3  1  0  0  0
  9 10  2  0  0  0
 11 12  2  0  0  0
 12 24  1  0  0  0
 13  8  2  0  0  0
 24 23  1  0  0  0
  4  1  1  0  0  0
  5  2  1  0  0  0
  6  7  1  0  0  0
  8  9  1  0  0  0
 10 11  1  0  0  0
 12 13  1  0  0  0
 24 25  2  0  0  0
  3 14  1  0  0  0
 23 26  1  0  0  0
 23 27  1  0  0  0
M  END
> <minimizedAffinity>
-8.76475

$$$$
CHEMBL3715037


 27 30  0  0  0  0  0  0  0  0999 V2000
   14.1880   17.1781    5.0824 N   0  0  0  0  0  0  0  0  0  0  0  0
   15.1469   18.4761    6.8821 N   0  0  0  0  0  0  0  0  0  0  0  0
   17.2407   17.6206    7.6574 N   0  0  0  0  0  0  0  0  0  0  0  0
   14.2007   18.1850    5.9763 C   0  0  0  0  0  0  0  0  0  0  0  0
   16.1499   17.5887    6.8348 C   0  0  0  0  0  0  0  0  0  0  0  0
   16.2727   16.5049    5.9794 C   0  0  0  0  0  0  0  0  0  0  0  0
   15.2410   16.3194    5.0298 C   0  0  0  0  0  0  0  0  0  0  0  0
   17.4734   15.8236    6.3679 C   0  0  0  0  0  0  0  0  0  0  0  0
   18.0683   16.5529    7.3991 C   0  0  0  0  0  0  0  0  0  0  0  0
   19.2725   16.1686    8.0007 C   0  0  0  0  0  0  0  0  0  0  0  0
   19.8893   14.9996    7.5329 C   0  0  0  0  0  0  0  0  0  0  0  0
   19.3186   14.2281    6.5159 C   0  0  0  0  0  0  0  0  0  0  0  0
   18.1028   14.6317    5.9530 C   0  0  0  0  0  0  0  0  0  0  0  0
   17.3849   18.3216    8.3680 H   0  0  0  0  0  0  0  0  0  0  0  0
   15.2377   15.3240    4.0634 N   0  0  0  0  0  0  0  0  0  0  0  0
   16.0478   15.5122    2.8683 C   0  0  0  0  0  0  0  0  0  0  0  0
   15.2170   15.3647    1.6030 C   0  0  0  0  0  0  0  0  0  0  0  0
   14.4973   14.0257    1.6033 C   0  0  0  0  0  0  0  0  0  0  0  0
   13.5814   13.9221    2.8162 C   0  0  0  0  0  0  0  0  0  0  0  0
   14.2331   14.2620    4.1677 C   0  0  0  0  0  0  0  0  0  0  0  0
   14.7916   13.0420    4.9315 C   0  0  0  0  0  0  0  0  0  0  0  0
   14.3612   11.6640    4.4571 C   0  0  0  0  0  0  0  0  0  0  0  0
   19.6784   11.7939    6.6285 N   0  0  0  0  0  0  0  0  0  0  0  0
   20.0275   12.9934    6.0691 C   0  0  0  0  0  0  0  0  0  0  0  0
   20.8998   13.0331    5.2082 O   0  0  0  0  0  0  0  0  0  0  0  0
   20.1763   10.9765    6.3003 H   0  0  0  0  0  0  0  0  0  0  0  0
   18.9647   11.6556    7.3251 H   0  0  0  0  0  0  0  0  0  0  0  0
  3  5  1  0  0  0
  4  2  2  0  0  0
  5  6  2  0  0  0
  6  8  1  0  0  0
  7 15  1  0  0  0
  7  1  2  0  0  0
 16 15  1  0  0  0
 16 17  1  0  0  0
 17 18  1  0  0  0
 18 19  1  0  0  0
 19 20  1  0  0  0
 20 21  1  0  0  0
 20 15  1  0  0  0
 21 22  1  0  0  0
  9  3  1  0  0  0
  9 10  2  0  0  0
 11 12  2  0  0  0
 12 24  1  0  0  0
 13  8  2  0  0  0
 24 23  1  0  0  0
  4  1  1  0  0  0
  5  2  1  0  0  0
  6  7  1  0  0  0
  8  9  1  0  0  0
 10 11  1  0  0  0
 12 13  1  0  0  0
 24 25  2  0  0  0
  3 14  1  0  0  0
 23 26  1  0  0  0
 23 27  1  0  0  0
M  END
> <minimizedAffinity>
-8.21646

$$$$
CHEMBL3715037


 27 30  0  0  0  0  0  0  0  0999 V2000
   13.6918   14.8917    3.5460 N   0  0  0  0  0  0  0  0  0  0  0  0
   12.4041   13.1783    2.4283 N   0  0  0  0  0  0  0  0  0  0  0  0
   13.2793   10.9759    2.7452 N   0  0  0  0  0  0  0  0  0  0  0  0
   12.6857   14.4448    2.7705 C   0  0  0  0  0  0  0  0  0  0  0  0
   13.3005   12.3274    2.9461 C   0  0  0  0  0  0  0  0  0  0  0  0
   14.3847   12.6376    3.7522 C   0  0  0  0  0  0  0  0  0  0  0  0
   14.5599   13.9992    4.0925 C   0  0  0  0  0  0  0  0  0  0  0  0
   15.0771   11.4030    3.9825 C   0  0  0  0  0  0  0  0  0  0  0  0
   14.3542   10.3815    3.3638 C   0  0  0  0  0  0  0  0  0  0  0  0
   14.7500    9.0394    3.4097 C   0  0  0  0  0  0  0  0  0  0  0  0
   15.9241    8.7312    4.1112 C   0  0  0  0  0  0  0  0  0  0  0  0
   16.6895    9.7251    4.7289 C   0  0  0  0  0  0  0  0  0  0  0  0
   16.2744   11.0586    4.6436 C   0  0  0  0  0  0  0  0  0  0  0  0
   12.5803   10.5036    2.1924 H   0  0  0  0  0  0  0  0  0  0  0  0
   15.5544   14.4725    4.9361 N   0  0  0  0  0  0  0  0  0  0  0  0
   15.1838   14.8960    6.2791 C   0  0  0  0  0  0  0  0  0  0  0  0
   15.6469   16.3166    6.5630 C   0  0  0  0  0  0  0  0  0  0  0  0
   17.1417   16.4386    6.3148 C   0  0  0  0  0  0  0  0  0  0  0  0
   17.4640   16.0890    4.8676 C   0  0  0  0  0  0  0  0  0  0  0  0
   16.8699   14.7639    4.3595 C   0  0  0  0  0  0  0  0  0  0  0  0
   17.8147   13.5497    4.4894 C   0  0  0  0  0  0  0  0  0  0  0  0
   19.2584   13.8261    4.8744 C   0  0  0  0  0  0  0  0  0  0  0  0
   17.9287    9.3502    6.8244 N   0  0  0  0  0  0  0  0  0  0  0  0
   17.9302    9.3264    5.4559 C   0  0  0  0  0  0  0  0  0  0  0  0
   18.9369    8.9686    4.8540 O   0  0  0  0  0  0  0  0  0  0  0  0
   18.7848    9.0705    7.2855 H   0  0  0  0  0  0  0  0  0  0  0  0
   17.1493    9.6089    7.4071 H   0  0  0  0  0  0  0  0  0  0  0  0
  3  5  1  0  0  0
  4  2  2  0  0  0
  5  6  2  0  0  0
  6  8  1  0  0  0
  7 15  1  0  0  0
  7  1  2  0  0  0
 16 15  1  0  0  0
 16 17  1  0  0  0
 17 18  1  0  0  0
 18 19  1  0  0  0
 19 20  1  0  0  0
 20 21  1  0  0  0
 20 15  1  0  0  0
 21 22  1  0  0  0
  9  3  1  0  0  0
  9 10  2  0  0  0
 11 12  2  0  0  0
 12 24  1  0  0  0
 13  8  2  0  0  0
 24 23  1  0  0  0
  4  1  1  0  0  0
  5  2  1  0  0  0
  6  7  1  0  0  0
  8  9  1  0  0  0
 10 11  1  0  0  0
 12 13  1  0  0  0
 24 25  2  0  0  0
  3 14  1  0  0  0
 23 26  1  0  0  0
 23 27  1  0  0  0
M  END
> <minimizedAffinity>
-7.93875

$$$$
CHEMBL3715037


 27 30  0  0  0  0  0  0  0  0999 V2000
   14.2365   16.8604    5.4671 N   0  0  0  0  0  0  0  0  0  0  0  0
   15.3229   18.4434    6.9356 N   0  0  0  0  0  0  0  0  0  0  0  0
   17.5058   17.7535    7.6254 N   0  0  0  0  0  0  0  0  0  0  0  0
   14.3039   17.9975    6.1851 C   0  0  0  0  0  0  0  0  0  0  0  0
   16.3431   17.5746    6.9301 C   0  0  0  0  0  0  0  0  0  0  0  0
   16.4164   16.3698    6.2486 C   0  0  0  0  0  0  0  0  0  0  0  0
   15.3051   16.0198    5.4468 C   0  0  0  0  0  0  0  0  0  0  0  0
   17.6687   15.7770    6.6192 C   0  0  0  0  0  0  0  0  0  0  0  0
   18.3368   16.6704    7.4584 C   0  0  0  0  0  0  0  0  0  0  0  0
   19.6039   16.4048    7.9911 C   0  0  0  0  0  0  0  0  0  0  0  0
   20.2082   15.1852    7.6550 C   0  0  0  0  0  0  0  0  0  0  0  0
   19.5667   14.2527    6.8340 C   0  0  0  0  0  0  0  0  0  0  0  0
   18.2913   14.5433    6.3373 C   0  0  0  0  0  0  0  0  0  0  0  0
   17.6960   18.5612    8.1988 H   0  0  0  0  0  0  0  0  0  0  0  0
   15.2397   14.8827    4.6547 N   0  0  0  0  0  0  0  0  0  0  0  0
   14.6291   13.6828    5.2095 C   0  0  0  0  0  0  0  0  0  0  0  0
   15.5645   12.4873    5.1160 C   0  0  0  0  0  0  0  0  0  0  0  0
   16.0169   12.2887    3.6784 C   0  0  0  0  0  0  0  0  0  0  0  0
   16.7442   13.5310    3.1803 C   0  0  0  0  0  0  0  0  0  0  0  0
   16.0089   14.8632    3.4074 C   0  0  0  0  0  0  0  0  0  0  0  0
   15.1449   15.3264    2.2146 C   0  0  0  0  0  0  0  0  0  0  0  0
   15.5009   14.7823    0.8412 C   0  0  0  0  0  0  0  0  0  0  0  0
   20.1019   11.9072    7.3629 N   0  0  0  0  0  0  0  0  0  0  0  0
   20.2667   12.9728    6.5198 C   0  0  0  0  0  0  0  0  0  0  0  0
   20.9696   12.8569    5.5217 O   0  0  0  0  0  0  0  0  0  0  0  0
   20.5877   11.0540    7.1184 H   0  0  0  0  0  0  0  0  0  0  0  0
   19.5325   11.8970    8.1932 H   0  0  0  0  0  0  0  0  0  0  0  0
  3  5  1  0  0  0
  4  2  2  0  0  0
  5  6  2  0  0  0
  6  8  1  0  0  0
  7 15  1  0  0  0
  7  1  2  0  0  0
 16 15  1  0  0  0
 16 17  1  0  0  0
 17 18  1  0  0  0
 18 19  1  0  0  0
 19 20  1  0  0  0
 20 21  1  0  0  0
 20 15  1  0  0  0
 21 22  1  0  0  0
  9  3  1  0  0  0
  9 10  2  0  0  0
 11 12  2  0  0  0
 12 24  1  0  0  0
 13  8  2  0  0  0
 24 23  1  0  0  0
  4  1  1  0  0  0
  5  2  1  0  0  0
  6  7  1  0  0  0
  8  9  1  0  0  0
 10 11  1  0  0  0
 12 13  1  0  0  0
 24 25  2  0  0  0
  3 14  1  0  0  0
 23 26  1  0  0  0
 23 27  1  0  0  0
M  END
> <minimizedAffinity>
-7.90487

$$$$
CHEMBL3715037


 27 30  0  0  0  0  0  0  0  0999 V2000
   15.8277   16.0940    4.1990 N   0  0  0  0  0  0  0  0  0  0  0  0
   13.6837   16.1537    3.0842 N   0  0  0  0  0  0  0  0  0  0  0  0
   12.7715   13.9836    2.6655 N   0  0  0  0  0  0  0  0  0  0  0  0
   14.7797   16.7113    3.6213 C   0  0  0  0  0  0  0  0  0  0  0  0
   13.7383   14.8167    3.1542 C   0  0  0  0  0  0  0  0  0  0  0  0
   14.7469   14.0453    3.7104 C   0  0  0  0  0  0  0  0  0  0  0  0
   15.8336   14.7375    4.2938 C   0  0  0  0  0  0  0  0  0  0  0  0
   14.3807   12.6789    3.4745 C   0  0  0  0  0  0  0  0  0  0  0  0
   13.1354   12.6692    2.8435 C   0  0  0  0  0  0  0  0  0  0  0  0
   12.4783   11.4864    2.4843 C   0  0  0  0  0  0  0  0  0  0  0  0
   13.1152   10.2729    2.7799 C   0  0  0  0  0  0  0  0  0  0  0  0
   14.3714   10.2365    3.3930 C   0  0  0  0  0  0  0  0  0  0  0  0
   15.0079   11.4395    3.7180 C   0  0  0  0  0  0  0  0  0  0  0  0
   11.9297   14.3077    2.2145 H   0  0  0  0  0  0  0  0  0  0  0  0
   16.8933   14.1226    4.9446 N   0  0  0  0  0  0  0  0  0  0  0  0
   16.9776   14.2327    6.3940 C   0  0  0  0  0  0  0  0  0  0  0  0
   18.3242   14.7865    6.8335 C   0  0  0  0  0  0  0  0  0  0  0  0
   19.4498   13.9441    6.2556 C   0  0  0  0  0  0  0  0  0  0  0  0
   19.3813   13.9487    4.7338 C   0  0  0  0  0  0  0  0  0  0  0  0
   18.0042   13.6175    4.1330 C   0  0  0  0  0  0  0  0  0  0  0  0
   17.8031   12.1275    3.7818 C   0  0  0  0  0  0  0  0  0  0  0  0
   18.3999   11.0999    4.7289 C   0  0  0  0  0  0  0  0  0  0  0  0
   14.6099    7.8296    2.9269 N   0  0  0  0  0  0  0  0  0  0  0  0
   14.9931    8.9096    3.6754 C   0  0  0  0  0  0  0  0  0  0  0  0
   15.8427    8.7745    4.5491 O   0  0  0  0  0  0  0  0  0  0  0  0
   15.0535    6.9461    3.1421 H   0  0  0  0  0  0  0  0  0  0  0  0
   13.9375    7.8423    2.1775 H   0  0  0  0  0  0  0  0  0  0  0  0
  3  5  1  0  0  0
  4  2  2  0  0  0
  5  6  2  0  0  0
  6  8  1  0  0  0
  7 15  1  0  0  0
  7  1  2  0  0  0
 16 15  1  0  0  0
 16 17  1  0  0  0
 17 18  1  0  0  0
 18 19  1  0  0  0
 19 20  1  0  0  0
 20 21  1  0  0  0
 20 15  1  0  0  0
 21 22  1  0  0  0
  9  3  1  0  0  0
  9 10  2  0  0  0
 11 12  2  0  0  0
 12 24  1  0  0  0
 13  8  2  0  0  0
 24 23  1  0  0  0
  4  1  1  0  0  0
  5  2  1  0  0  0
  6  7  1  0  0  0
  8  9  1  0  0  0
 10 11  1  0  0  0
 12 13  1  0  0  0
 24 25  2  0  0  0
  3 14  1  0  0  0
 23 26  1  0  0  0
 23 27  1  0  0  0
M  END
> <minimizedAffinity>
-7.80581

$$$$
CHEMBL3715037


 27 30  0  0  0  0  0  0  0  0999 V2000
   14.8572   16.8567    4.5744 N   0  0  0  0  0  0  0  0  0  0  0  0
   16.8577   18.2063    4.7151 N   0  0  0  0  0  0  0  0  0  0  0  0
   18.8552   16.9175    4.9712 N   0  0  0  0  0  0  0  0  0  0  0  0
   15.5331   18.0208    4.6069 C   0  0  0  0  0  0  0  0  0  0  0  0
   17.5019   17.0364    4.8238 C   0  0  0  0  0  0  0  0  0  0  0  0
   16.9452   15.7669    4.8123 C   0  0  0  0  0  0  0  0  0  0  0  0
   15.5434   15.6847    4.6431 C   0  0  0  0  0  0  0  0  0  0  0  0
   18.0290   14.8537    5.0323 C   0  0  0  0  0  0  0  0  0  0  0  0
   19.2096   15.5953    5.1041 C   0  0  0  0  0  0  0  0  0  0  0  0
   20.4638   15.0043    5.2980 C   0  0  0  0  0  0  0  0  0  0  0  0
   20.5129   13.6087    5.4230 C   0  0  0  0  0  0  0  0  0  0  0  0
   19.3532   12.8289    5.3770 C   0  0  0  0  0  0  0  0  0  0  0  0
   18.1146   13.4565    5.2035 C   0  0  0  0  0  0  0  0  0  0  0  0
   19.4854   17.7043    5.0047 H   0  0  0  0  0  0  0  0  0  0  0  0
   14.8358   14.4952    4.5488 N   0  0  0  0  0  0  0  0  0  0  0  0
   14.7266   13.6551    5.7330 C   0  0  0  0  0  0  0  0  0  0  0  0
   15.2057   12.2382    5.4572 C   0  0  0  0  0  0  0  0  0  0  0  0
   14.4576   11.6553    4.2692 C   0  0  0  0  0  0  0  0  0  0  0  0
   14.6910   12.5106    3.0305 C   0  0  0  0  0  0  0  0  0  0  0  0
   14.4563   14.0199    3.2153 C   0  0  0  0  0  0  0  0  0  0  0  0
   13.0364   14.4955    2.8393 C   0  0  0  0  0  0  0  0  0  0  0  0
   12.0253   13.4321    2.4443 C   0  0  0  0  0  0  0  0  0  0  0  0
   19.4793   10.8063    6.7771 N   0  0  0  0  0  0  0  0  0  0  0  0
   19.4784   11.3489    5.5205 C   0  0  0  0  0  0  0  0  0  0  0  0
   19.5663   10.6167    4.5409 O   0  0  0  0  0  0  0  0  0  0  0  0
   19.5621    9.7997    6.8383 H   0  0  0  0  0  0  0  0  0  0  0  0
   19.3928   11.3193    7.6392 H   0  0  0  0  0  0  0  0  0  0  0  0
  3  5  1  0  0  0
  4  2  2  0  0  0
  5  6  2  0  0  0
  6  8  1  0  0  0
  7 15  1  0  0  0
  7  1  2  0  0  0
 16 15  1  0  0  0
 16 17  1  0  0  0
 17 18  1  0  0  0
 18 19  1  0  0  0
 19 20  1  0  0  0
 20 21  1  0  0  0
 20 15  1  0  0  0
 21 22  1  0  0  0
  9  3  1  0  0  0
  9 10  2  0  0  0
 11 12  2  0  0  0
 12 24  1  0  0  0
 13  8  2  0  0  0
 24 23  1  0  0  0
  4  1  1  0  0  0
  5  2  1  0  0  0
  6  7  1  0  0  0
  8  9  1  0  0  0
 10 11  1  0  0  0
 12 13  1  0  0  0
 24 25  2  0  0  0
  3 14  1  0  0  0
 23 26  1  0  0  0
 23 27  1  0  0  0
M  END
> <minimizedAffinity>
-7.58457

$$$$
CHEMBL3715974


 26 29  0  0  0  0  0  0  0  0999 V2000
   16.6487   11.0281    4.7971 C   0  0  0  0  0  0  0  0  0  0  0  0
   17.7042    9.0820    5.5444 C   0  0  0  0  0  0  0  0  0  0  0  0
   15.9480    8.8185    4.2263 C   0  0  0  0  0  0  0  0  0  0  0  0
   15.7221   10.1832    4.1412 C   0  0  0  0  0  0  0  0  0  0  0  0
   14.5113   10.3432    3.3869 C   0  0  0  0  0  0  0  0  0  0  0  0
   14.1066    9.0781    2.9562 C   0  0  0  0  0  0  0  0  0  0  0  0
   12.9823    8.8772    2.1480 C   0  0  0  0  0  0  0  0  0  0  0  0
   12.2505   10.0085    1.7629 C   0  0  0  0  0  0  0  0  0  0  0  0
   12.6029   11.2915    2.1960 C   0  0  0  0  0  0  0  0  0  0  0  0
   13.7112   11.4535    3.0371 C   0  0  0  0  0  0  0  0  0  0  0  0
   17.6159   10.4260    5.5398 N   0  0  0  0  0  0  0  0  0  0  0  0
   16.9262    8.1985    4.9001 N   0  0  0  0  0  0  0  0  0  0  0  0
   14.9935    8.1734    3.4919 N   0  0  0  0  0  0  0  0  0  0  0  0
   14.9512    7.1713    3.3860 H   0  0  0  0  0  0  0  0  0  0  0  0
   15.6887   14.7171    2.5949 C   0  0  0  0  0  0  0  0  0  0  0  0
   15.0989   15.0450    3.9643 C   0  0  0  0  0  0  0  0  0  0  0  0
   14.5550   13.8388    4.7245 C   0  0  0  0  0  0  0  0  0  0  0  0
   15.6326   13.1322    5.5464 C   0  0  0  0  0  0  0  0  0  0  0  0
   17.3385   13.0714    3.6631 C   0  0  0  0  0  0  0  0  0  0  0  0
   16.4413   13.3920    2.4722 C   0  0  0  0  0  0  0  0  0  0  0  0
   16.6115   12.4142    4.7420 N   0  0  0  0  0  0  0  0  0  0  0  0
   11.7803   12.4467    1.7328 C   0  0  0  0  0  0  0  0  0  0  0  0
   11.9383   13.6560    2.3533 N   0  0  0  0  0  0  0  0  0  0  0  0
   10.9906   12.3380    0.8014 O   0  0  0  0  0  0  0  0  0  0  0  0
   11.3743   14.4215    2.0072 H   0  0  0  0  0  0  0  0  0  0  0  0
   12.5806   13.8501    3.1039 H   0  0  0  0  0  0  0  0  0  0  0  0
 15 16  1  0  0  0
 16 17  1  0  0  0
 17 18  1  0  0  0
 18 21  1  0  0  0
 19 21  1  0  0  0
 19 20  1  0  0  0
 20 15  1  0  0  0
  2 11  2  0  0  0
  3 12  2  0  0  0
  4  5  1  0  0  0
  4  1  2  0  0  0
  6 13  1  0  0  0
  6  7  2  0  0  0
  8  9  2  0  0  0
  9 22  1  0  0  0
 10  5  2  0  0  0
 22 23  1  0  0  0
 21  1  1  0  0  0
 13  3  1  0  0  0
  1 11  1  0  0  0
  2 12  1  0  0  0
  3  4  1  0  0  0
  5  6  1  0  0  0
  7  8  1  0  0  0
  9 10  1  0  0  0
 22 24  2  0  0  0
 13 14  1  0  0  0
 23 25  1  0  0  0
 23 26  1  0  0  0
M  END
> <minimizedAffinity>
-9.34997

$$$$
CHEMBL3715974


 26 29  0  0  0  0  0  0  0  0999 V2000
   14.0320   13.4962    3.5634 C   0  0  0  0  0  0  0  0  0  0  0  0
   11.9968   13.4632    2.4158 C   0  0  0  0  0  0  0  0  0  0  0  0
   12.9320   11.5045    2.8404 C   0  0  0  0  0  0  0  0  0  0  0  0
   14.0365   12.0862    3.4424 C   0  0  0  0  0  0  0  0  0  0  0  0
   14.9346   11.0113    3.7567 C   0  0  0  0  0  0  0  0  0  0  0  0
   14.2973    9.8131    3.4287 C   0  0  0  0  0  0  0  0  0  0  0  0
   14.8769    8.5601    3.6563 C   0  0  0  0  0  0  0  0  0  0  0  0
   16.1486    8.5316    4.2442 C   0  0  0  0  0  0  0  0  0  0  0  0
   16.8358    9.7085    4.5615 C   0  0  0  0  0  0  0  0  0  0  0  0
   16.2435   10.9471    4.2839 C   0  0  0  0  0  0  0  0  0  0  0  0
   12.9971   14.1627    2.9853 N   0  0  0  0  0  0  0  0  0  0  0  0
   11.8701   12.1309    2.3157 N   0  0  0  0  0  0  0  0  0  0  0  0
   13.0882   10.1475    2.8645 N   0  0  0  0  0  0  0  0  0  0  0  0
   12.4086    9.4993    2.4967 H   0  0  0  0  0  0  0  0  0  0  0  0
   15.7229   17.3830    4.7521 C   0  0  0  0  0  0  0  0  0  0  0  0
   15.8362   16.6131    6.0655 C   0  0  0  0  0  0  0  0  0  0  0  0
   14.7342   15.5821    6.2919 C   0  0  0  0  0  0  0  0  0  0  0  0
   15.0643   14.2275    5.6659 C   0  0  0  0  0  0  0  0  0  0  0  0
   15.7770   15.1910    3.4243 C   0  0  0  0  0  0  0  0  0  0  0  0
   15.2105   16.6021    3.5418 C   0  0  0  0  0  0  0  0  0  0  0  0
   15.0204   14.2243    4.2103 N   0  0  0  0  0  0  0  0  0  0  0  0
   18.1811    9.5945    5.1962 C   0  0  0  0  0  0  0  0  0  0  0  0
   18.2549    9.2955    6.5294 N   0  0  0  0  0  0  0  0  0  0  0  0
   19.2102    9.7400    4.5462 O   0  0  0  0  0  0  0  0  0  0  0  0
   19.1822    9.2135    6.9262 H   0  0  0  0  0  0  0  0  0  0  0  0
   17.4696    9.1293    7.1371 H   0  0  0  0  0  0  0  0  0  0  0  0
 15 16  1  0  0  0
 16 17  1  0  0  0
 17 18  1  0  0  0
 18 21  1  0  0  0
 19 21  1  0  0  0
 19 20  1  0  0  0
 20 15  1  0  0  0
  2 11  2  0  0  0
  3 12  2  0  0  0
  4  5  1  0  0  0
  4  1  2  0  0  0
  6 13  1  0  0  0
  6  7  2  0  0  0
  8  9  2  0  0  0
  9 22  1  0  0  0
 10  5  2  0  0  0
 22 23  1  0  0  0
 21  1  1  0  0  0
 13  3  1  0  0  0
  1 11  1  0  0  0
  2 12  1  0  0  0
  3  4  1  0  0  0
  5  6  1  0  0  0
  7  8  1  0  0  0
  9 10  1  0  0  0
 22 24  2  0  0  0
 13 14  1  0  0  0
 23 25  1  0  0  0
 23 26  1  0  0  0
M  END
> <minimizedAffinity>
-9.25721

$$$$
CHEMBL3715974


 26 29  0  0  0  0  0  0  0  0999 V2000
   16.0446   11.2187    4.3081 C   0  0  0  0  0  0  0  0  0  0  0  0
   16.2115    8.8892    4.3828 C   0  0  0  0  0  0  0  0  0  0  0  0
   14.4166    9.7275    3.3994 C   0  0  0  0  0  0  0  0  0  0  0  0
   14.7960   11.0331    3.6682 C   0  0  0  0  0  0  0  0  0  0  0  0
   13.7180   11.8656    3.2147 C   0  0  0  0  0  0  0  0  0  0  0  0
   12.7748   11.0428    2.5958 C   0  0  0  0  0  0  0  0  0  0  0  0
   11.6146   11.5412    1.9932 C   0  0  0  0  0  0  0  0  0  0  0  0
   11.4152   12.9279    2.0195 C   0  0  0  0  0  0  0  0  0  0  0  0
   12.3194   13.7864    2.6546 C   0  0  0  0  0  0  0  0  0  0  0  0
   13.4510   13.2509    3.2830 C   0  0  0  0  0  0  0  0  0  0  0  0
   16.7118   10.0995    4.6975 N   0  0  0  0  0  0  0  0  0  0  0  0
   15.0807    8.6079    3.7169 N   0  0  0  0  0  0  0  0  0  0  0  0
   13.2231    9.7498    2.7348 N   0  0  0  0  0  0  0  0  0  0  0  0
   12.7444    8.9212    2.4163 H   0  0  0  0  0  0  0  0  0  0  0  0
   16.3915   15.5076    3.3781 C   0  0  0  0  0  0  0  0  0  0  0  0
   16.2728   15.5579    4.8992 C   0  0  0  0  0  0  0  0  0  0  0  0
   15.4117   14.4527    5.5038 C   0  0  0  0  0  0  0  0  0  0  0  0
   16.2072   13.1767    5.7780 C   0  0  0  0  0  0  0  0  0  0  0  0
   17.3282   13.1244    3.4972 C   0  0  0  0  0  0  0  0  0  0  0  0
   16.4539   14.1192    2.7410 C   0  0  0  0  0  0  0  0  0  0  0  0
   16.6050   12.4599    4.5743 N   0  0  0  0  0  0  0  0  0  0  0  0
   12.0425   15.2521    2.6290 C   0  0  0  0  0  0  0  0  0  0  0  0
   10.8938   15.6930    2.0303 N   0  0  0  0  0  0  0  0  0  0  0  0
   12.8066   16.0573    3.1492 O   0  0  0  0  0  0  0  0  0  0  0  0
   10.7302   16.6915    2.0408 H   0  0  0  0  0  0  0  0  0  0  0  0
   10.1933   15.1086    1.6043 H   0  0  0  0  0  0  0  0  0  0  0  0
 15 16  1  0  0  0
 16 17  1  0  0  0
 17 18  1  0  0  0
 18 21  1  0  0  0
 19 21  1  0  0  0
 19 20  1  0  0  0
 20 15  1  0  0  0
  2 11  2  0  0  0
  3 12  2  0  0  0
  4  5  1  0  0  0
  4  1  2  0  0  0
  6 13  1  0  0  0
  6  7  2  0  0  0
  8  9  2  0  0  0
  9 22  1  0  0  0
 10  5  2  0  0  0
 22 23  1  0  0  0
 21  1  1  0  0  0
 13  3  1  0  0  0
  1 11  1  0  0  0
  2 12  1  0  0  0
  3  4  1  0  0  0
  5  6  1  0  0  0
  7  8  1  0  0  0
  9 10  1  0  0  0
 22 24  2  0  0  0
 13 14  1  0  0  0
 23 25  1  0  0  0
 23 26  1  0  0  0
M  END
> <minimizedAffinity>
-9.03631

$$$$
CHEMBL3715974


 26 29  0  0  0  0  0  0  0  0999 V2000
   17.0235   13.1016    4.7929 C   0  0  0  0  0  0  0  0  0  0  0  0
   19.1067   12.8332    5.8167 C   0  0  0  0  0  0  0  0  0  0  0  0
   18.1258   11.0009    5.0605 C   0  0  0  0  0  0  0  0  0  0  0  0
   17.0042   11.6953    4.6356 C   0  0  0  0  0  0  0  0  0  0  0  0
   16.0778   10.7078    4.1587 C   0  0  0  0  0  0  0  0  0  0  0  0
   16.7118    9.4651    4.2160 C   0  0  0  0  0  0  0  0  0  0  0  0
   16.1048    8.2843    3.7745 C   0  0  0  0  0  0  0  0  0  0  0  0
   14.8082    8.3785    3.2517 C   0  0  0  0  0  0  0  0  0  0  0  0
   14.1245    9.5984    3.2030 C   0  0  0  0  0  0  0  0  0  0  0  0
   14.7461   10.7553    3.6901 C   0  0  0  0  0  0  0  0  0  0  0  0
   18.0924   13.6362    5.4419 N   0  0  0  0  0  0  0  0  0  0  0  0
   19.2187   11.5065    5.6481 N   0  0  0  0  0  0  0  0  0  0  0  0
   17.9493    9.6758    4.7784 N   0  0  0  0  0  0  0  0  0  0  0  0
   18.6352    8.9645    4.9804 H   0  0  0  0  0  0  0  0  0  0  0  0
   14.5600   16.7046    5.3667 C   0  0  0  0  0  0  0  0  0  0  0  0
   14.9385   16.8536    3.8953 C   0  0  0  0  0  0  0  0  0  0  0  0
   16.3125   16.2957    3.5355 C   0  0  0  0  0  0  0  0  0  0  0  0
   16.2676   14.8058    3.1975 C   0  0  0  0  0  0  0  0  0  0  0  0
   14.8738   14.1644    5.2241 C   0  0  0  0  0  0  0  0  0  0  0  0
   15.0219   15.4266    6.0672 C   0  0  0  0  0  0  0  0  0  0  0  0
   16.0179   13.9477    4.3474 N   0  0  0  0  0  0  0  0  0  0  0  0
   12.7510    9.6183    2.6210 C   0  0  0  0  0  0  0  0  0  0  0  0
   12.0531   10.7953    2.6253 N   0  0  0  0  0  0  0  0  0  0  0  0
   12.2514    8.6151    2.1242 O   0  0  0  0  0  0  0  0  0  0  0  0
   11.1295   10.7775    2.2122 H   0  0  0  0  0  0  0  0  0  0  0  0
   12.3893   11.6748    2.9818 H   0  0  0  0  0  0  0  0  0  0  0  0
 15 16  1  0  0  0
 16 17  1  0  0  0
 17 18  1  0  0  0
 18 21  1  0  0  0
 19 21  1  0  0  0
 19 20  1  0  0  0
 20 15  1  0  0  0
  2 11  2  0  0  0
  3 12  2  0  0  0
  4  5  1  0  0  0
  4  1  2  0  0  0
  6 13  1  0  0  0
  6  7  2  0  0  0
  8  9  2  0  0  0
  9 22  1  0  0  0
 10  5  2  0  0  0
 22 23  1  0  0  0
 21  1  1  0  0  0
 13  3  1  0  0  0
  1 11  1  0  0  0
  2 12  1  0  0  0
  3  4  1  0  0  0
  5  6  1  0  0  0
  7  8  1  0  0  0
  9 10  1  0  0  0
 22 24  2  0  0  0
 13 14  1  0  0  0
 23 25  1  0  0  0
 23 26  1  0  0  0
M  END
> <minimizedAffinity>
-8.53837

$$$$
CHEMBL3715974


 26 29  0  0  0  0  0  0  0  0999 V2000
   16.6367   14.2749    4.7376 C   0  0  0  0  0  0  0  0  0  0  0  0
   18.8966   13.6920    4.6227 C   0  0  0  0  0  0  0  0  0  0  0  0
   18.4305   15.7371    5.3238 C   0  0  0  0  0  0  0  0  0  0  0  0
   17.0665   15.5557    5.1591 C   0  0  0  0  0  0  0  0  0  0  0  0
   16.4549   16.8203    5.4547 C   0  0  0  0  0  0  0  0  0  0  0  0
   17.4590   17.6891    5.8867 C   0  0  0  0  0  0  0  0  0  0  0  0
   17.1986   18.9983    6.3061 C   0  0  0  0  0  0  0  0  0  0  0  0
   15.8662   19.4316    6.2884 C   0  0  0  0  0  0  0  0  0  0  0  0
   14.8326   18.6044    5.8350 C   0  0  0  0  0  0  0  0  0  0  0  0
   15.1328   17.3125    5.3845 C   0  0  0  0  0  0  0  0  0  0  0  0
   17.6033   13.3691    4.4296 N   0  0  0  0  0  0  0  0  0  0  0  0
   19.4021   14.8455    5.0863 N   0  0  0  0  0  0  0  0  0  0  0  0
   18.6478   17.0047    5.7849 N   0  0  0  0  0  0  0  0  0  0  0  0
   19.5621   17.3742    5.9964 H   0  0  0  0  0  0  0  0  0  0  0  0
   13.3527   12.7481    2.2348 C   0  0  0  0  0  0  0  0  0  0  0  0
   13.1543   11.9151    3.4986 C   0  0  0  0  0  0  0  0  0  0  0  0
   14.4420   11.5855    4.2481 C   0  0  0  0  0  0  0  0  0  0  0  0
   14.8390   12.6813    5.2369 C   0  0  0  0  0  0  0  0  0  0  0  0
   14.5101   14.5901    3.5909 C   0  0  0  0  0  0  0  0  0  0  0  0
   14.4494   13.8124    2.2804 C   0  0  0  0  0  0  0  0  0  0  0  0
   15.3056   13.9066    4.6031 N   0  0  0  0  0  0  0  0  0  0  0  0
   13.4384   19.1349    5.8581 C   0  0  0  0  0  0  0  0  0  0  0  0
   12.6140   18.7698    6.8874 N   0  0  0  0  0  0  0  0  0  0  0  0
   13.0306   19.9016    4.9929 O   0  0  0  0  0  0  0  0  0  0  0  0
   11.6789   19.1565    6.8797 H   0  0  0  0  0  0  0  0  0  0  0  0
   12.8666   18.1717    7.6568 H   0  0  0  0  0  0  0  0  0  0  0  0
 15 16  1  0  0  0
 16 17  1  0  0  0
 17 18  1  0  0  0
 18 21  1  0  0  0
 19 21  1  0  0  0
 19 20  1  0  0  0
 20 15  1  0  0  0
  2 11  2  0  0  0
  3 12  2  0  0  0
  4  5  1  0  0  0
  4  1  2  0  0  0
  6 13  1  0  0  0
  6  7  2  0  0  0
  8  9  2  0  0  0
  9 22  1  0  0  0
 10  5  2  0  0  0
 22 23  1  0  0  0
 21  1  1  0  0  0
 13  3  1  0  0  0
  1 11  1  0  0  0
  2 12  1  0  0  0
  3  4  1  0  0  0
  5  6  1  0  0  0
  7  8  1  0  0  0
  9 10  1  0  0  0
 22 24  2  0  0  0
 13 14  1  0  0  0
 23 25  1  0  0  0
 23 26  1  0  0  0
M  END
> <minimizedAffinity>
-8.02659

$$$$
CHEMBL3715974


 26 29  0  0  0  0  0  0  0  0999 V2000
   16.3580   11.7576    4.3034 C   0  0  0  0  0  0  0  0  0  0  0  0
   16.9950    9.5112    4.2160 C   0  0  0  0  0  0  0  0  0  0  0  0
   18.5378   10.9589    4.8601 C   0  0  0  0  0  0  0  0  0  0  0  0
   17.6886   12.0413    4.6930 C   0  0  0  0  0  0  0  0  0  0  0  0
   18.4765   13.2131    4.9517 C   0  0  0  0  0  0  0  0  0  0  0  0
   19.7421   12.7933    5.3659 C   0  0  0  0  0  0  0  0  0  0  0  0
   20.7484   13.6868    5.7490 C   0  0  0  0  0  0  0  0  0  0  0  0
   20.4484   15.0550    5.7127 C   0  0  0  0  0  0  0  0  0  0  0  0
   19.2033   15.5209    5.2760 C   0  0  0  0  0  0  0  0  0  0  0  0
   18.2314   14.6013    4.8615 C   0  0  0  0  0  0  0  0  0  0  0  0
   16.0589   10.4605    4.0247 N   0  0  0  0  0  0  0  0  0  0  0  0
   18.2549    9.6659    4.6515 N   0  0  0  0  0  0  0  0  0  0  0  0
   19.7504   11.4200    5.2885 N   0  0  0  0  0  0  0  0  0  0  0  0
   20.5356   10.8215    5.4950 H   0  0  0  0  0  0  0  0  0  0  0  0
   14.7440   15.7197    5.3412 C   0  0  0  0  0  0  0  0  0  0  0  0
   14.5422   15.7209    3.8280 C   0  0  0  0  0  0  0  0  0  0  0  0
   15.5968   14.9410    3.0481 C   0  0  0  0  0  0  0  0  0  0  0  0
   15.2516   13.4574    2.9223 C   0  0  0  0  0  0  0  0  0  0  0  0
   14.6796   13.1573    5.3807 C   0  0  0  0  0  0  0  0  0  0  0  0
   15.2870   14.4310    5.9592 C   0  0  0  0  0  0  0  0  0  0  0  0
   15.3648   12.7177    4.1717 N   0  0  0  0  0  0  0  0  0  0  0  0
   18.9568   16.9923    5.2776 C   0  0  0  0  0  0  0  0  0  0  0  0
   18.2303   17.5374    4.2542 N   0  0  0  0  0  0  0  0  0  0  0  0
   19.3698   17.7098    6.1818 O   0  0  0  0  0  0  0  0  0  0  0  0
   18.0709   18.5360    4.2916 H   0  0  0  0  0  0  0  0  0  0  0  0
   17.8256   17.0275    3.4862 H   0  0  0  0  0  0  0  0  0  0  0  0
 15 16  1  0  0  0
 16 17  1  0  0  0
 17 18  1  0  0  0
 18 21  1  0  0  0
 19 21  1  0  0  0
 19 20  1  0  0  0
 20 15  1  0  0  0
  2 11  2  0  0  0
  3 12  2  0  0  0
  4  5  1  0  0  0
  4  1  2  0  0  0
  6 13  1  0  0  0
  6  7  2  0  0  0
  8  9  2  0  0  0
  9 22  1  0  0  0
 10  5  2  0  0  0
 22 23  1  0  0  0
 21  1  1  0  0  0
 13  3  1  0  0  0
  1 11  1  0  0  0
  2 12  1  0  0  0
  3  4  1  0  0  0
  5  6  1  0  0  0
  7  8  1  0  0  0
  9 10  1  0  0  0
 22 24  2  0  0  0
 13 14  1  0  0  0
 23 25  1  0  0  0
 23 26  1  0  0  0
M  END
> <minimizedAffinity>
-8.00651

$$$$
CHEMBL3715974


 26 29  0  0  0  0  0  0  0  0999 V2000
   16.9861   14.8000    5.5355 C   0  0  0  0  0  0  0  0  0  0  0  0
   19.0907   14.6803    6.5435 C   0  0  0  0  0  0  0  0  0  0  0  0
   18.3066   12.8145    5.6519 C   0  0  0  0  0  0  0  0  0  0  0  0
   17.1155   13.4149    5.2755 C   0  0  0  0  0  0  0  0  0  0  0  0
   16.2971   12.3721    4.7245 C   0  0  0  0  0  0  0  0  0  0  0  0
   17.0598   11.2030    4.6925 C   0  0  0  0  0  0  0  0  0  0  0  0
   16.5797   10.0000    4.1637 C   0  0  0  0  0  0  0  0  0  0  0  0
   15.2779    9.9938    3.6451 C   0  0  0  0  0  0  0  0  0  0  0  0
   14.4683   11.1344    3.6839 C   0  0  0  0  0  0  0  0  0  0  0  0
   14.9657   12.3120    4.2565 C   0  0  0  0  0  0  0  0  0  0  0  0
   17.9951   15.3962    6.2254 N   0  0  0  0  0  0  0  0  0  0  0  0
   19.3422   13.3889    6.2784 N   0  0  0  0  0  0  0  0  0  0  0  0
   18.2705   11.5024    5.2728 N   0  0  0  0  0  0  0  0  0  0  0  0
   19.0290   10.8551    5.4242 H   0  0  0  0  0  0  0  0  0  0  0  0
   14.1850   18.0989    6.3425 C   0  0  0  0  0  0  0  0  0  0  0  0
   14.5235   18.3685    4.8785 C   0  0  0  0  0  0  0  0  0  0  0  0
   15.9403   17.9728    4.4731 C   0  0  0  0  0  0  0  0  0  0  0  0
   16.0388   16.5075    4.0496 C   0  0  0  0  0  0  0  0  0  0  0  0
   14.7482   15.6153    6.0494 C   0  0  0  0  0  0  0  0  0  0  0  0
   14.7831   16.8360    6.9629 C   0  0  0  0  0  0  0  0  0  0  0  0
   15.8942   15.5648    5.1501 N   0  0  0  0  0  0  0  0  0  0  0  0
   13.0977   11.0508    3.1006 C   0  0  0  0  0  0  0  0  0  0  0  0
   12.5276   12.1886    2.5977 N   0  0  0  0  0  0  0  0  0  0  0  0
   12.4895    9.9879    3.0441 O   0  0  0  0  0  0  0  0  0  0  0  0
   11.6025   12.0952    2.1985 H   0  0  0  0  0  0  0  0  0  0  0  0
   12.9587   13.0980    2.5719 H   0  0  0  0  0  0  0  0  0  0  0  0
 15 16  1  0  0  0
 16 17  1  0  0  0
 17 18  1  0  0  0
 18 21  1  0  0  0
 19 21  1  0  0  0
 19 20  1  0  0  0
 20 15  1  0  0  0
  2 11  2  0  0  0
  3 12  2  0  0  0
  4  5  1  0  0  0
  4  1  2  0  0  0
  6 13  1  0  0  0
  6  7  2  0  0  0
  8  9  2  0  0  0
  9 22  1  0  0  0
 10  5  2  0  0  0
 22 23  1  0  0  0
 21  1  1  0  0  0
 13  3  1  0  0  0
  1 11  1  0  0  0
  2 12  1  0  0  0
  3  4  1  0  0  0
  5  6  1  0  0  0
  7  8  1  0  0  0
  9 10  1  0  0  0
 22 24  2  0  0  0
 13 14  1  0  0  0
 23 25  1  0  0  0
 23 26  1  0  0  0
M  END
> <minimizedAffinity>
-7.94201

$$$$
CHEMBL3715974


 26 29  0  0  0  0  0  0  0  0999 V2000
   16.1814   14.9248    4.5848 C   0  0  0  0  0  0  0  0  0  0  0  0
   15.1347   16.8809    3.8512 C   0  0  0  0  0  0  0  0  0  0  0  0
   14.1270   14.9720    3.3696 C   0  0  0  0  0  0  0  0  0  0  0  0
   15.1302   14.2164    3.9556 C   0  0  0  0  0  0  0  0  0  0  0  0
   14.7974   12.8430    3.7034 C   0  0  0  0  0  0  0  0  0  0  0  0
   13.5551   12.8151    3.0664 C   0  0  0  0  0  0  0  0  0  0  0  0
   12.9079   11.6237    2.7211 C   0  0  0  0  0  0  0  0  0  0  0  0
   13.5500   10.4205    3.0430 C   0  0  0  0  0  0  0  0  0  0  0  0
   14.8085   10.4023    3.6542 C   0  0  0  0  0  0  0  0  0  0  0  0
   15.4470   11.6133    3.9506 C   0  0  0  0  0  0  0  0  0  0  0  0
   16.1704   16.2797    4.4676 N   0  0  0  0  0  0  0  0  0  0  0  0
   14.0582   16.3078    3.2910 N   0  0  0  0  0  0  0  0  0  0  0  0
   13.1806   14.1237    2.8682 N   0  0  0  0  0  0  0  0  0  0  0  0
   12.3409   14.4339    2.4036 H   0  0  0  0  0  0  0  0  0  0  0  0
   20.4790   14.6061    5.4843 C   0  0  0  0  0  0  0  0  0  0  0  0
   19.8928   14.5698    6.8934 C   0  0  0  0  0  0  0  0  0  0  0  0
   18.6133   15.3827    7.0678 C   0  0  0  0  0  0  0  0  0  0  0  0
   17.3605   14.5838    6.7094 C   0  0  0  0  0  0  0  0  0  0  0  0
   18.2864   13.6997    4.5135 C   0  0  0  0  0  0  0  0  0  0  0  0
   19.4803   14.6301    4.3269 C   0  0  0  0  0  0  0  0  0  0  0  0
   17.2166   14.3209    5.2843 N   0  0  0  0  0  0  0  0  0  0  0  0
   15.4212    9.0806    3.9758 C   0  0  0  0  0  0  0  0  0  0  0  0
   15.0447    7.9870    3.2445 N   0  0  0  0  0  0  0  0  0  0  0  0
   16.2634    8.9630    4.8588 O   0  0  0  0  0  0  0  0  0  0  0  0
   15.4879    7.1083    3.4799 H   0  0  0  0  0  0  0  0  0  0  0  0
   14.3859    7.9895    2.4832 H   0  0  0  0  0  0  0  0  0  0  0  0
 15 16  1  0  0  0
 16 17  1  0  0  0
 17 18  1  0  0  0
 18 21  1  0  0  0
 19 21  1  0  0  0
 19 20  1  0  0  0
 20 15  1  0  0  0
  2 11  2  0  0  0
  3 12  2  0  0  0
  4  5  1  0  0  0
  4  1  2  0  0  0
  6 13  1  0  0  0
  6  7  2  0  0  0
  8  9  2  0  0  0
  9 22  1  0  0  0
 10  5  2  0  0  0
 22 23  1  0  0  0
 21  1  1  0  0  0
 13  3  1  0  0  0
  1 11  1  0  0  0
  2 12  1  0  0  0
  3  4  1  0  0  0
  5  6  1  0  0  0
  7  8  1  0  0  0
  9 10  1  0  0  0
 22 24  2  0  0  0
 13 14  1  0  0  0
 23 25  1  0  0  0
 23 26  1  0  0  0
M  END
> <minimizedAffinity>
-7.91433

$$$$
CHEMBL3715974


 26 29  0  0  0  0  0  0  0  0999 V2000
   16.0323   11.0579    4.1507 C   0  0  0  0  0  0  0  0  0  0  0  0
   17.0665   13.1528    4.1067 C   0  0  0  0  0  0  0  0  0  0  0  0
   18.3282   11.4319    4.6880 C   0  0  0  0  0  0  0  0  0  0  0  0
   17.2723   10.5392    4.5935 C   0  0  0  0  0  0  0  0  0  0  0  0
   17.7786    9.2707    5.0356 C   0  0  0  0  0  0  0  0  0  0  0  0
   19.1450    9.4190    5.2817 C   0  0  0  0  0  0  0  0  0  0  0  0
   19.9622    8.3559    5.6810 C   0  0  0  0  0  0  0  0  0  0  0  0
   19.3630    7.0978    5.8282 C   0  0  0  0  0  0  0  0  0  0  0  0
   17.9920    6.9103    5.6209 C   0  0  0  0  0  0  0  0  0  0  0  0
   17.1948    8.0043    5.2604 C   0  0  0  0  0  0  0  0  0  0  0  0
   15.9578   12.4023    3.9592 N   0  0  0  0  0  0  0  0  0  0  0  0
   18.3002   12.7498    4.4482 N   0  0  0  0  0  0  0  0  0  0  0  0
   19.4449   10.7450    5.0722 N   0  0  0  0  0  0  0  0  0  0  0  0
   20.3495   11.1730    5.1980 H   0  0  0  0  0  0  0  0  0  0  0  0
   12.2885   10.3565    1.9435 C   0  0  0  0  0  0  0  0  0  0  0  0
   12.8957    8.9560    1.9204 C   0  0  0  0  0  0  0  0  0  0  0  0
   14.4209    8.9280    1.8801 C   0  0  0  0  0  0  0  0  0  0  0  0
   15.0431    8.9903    3.2747 C   0  0  0  0  0  0  0  0  0  0  0  0
   13.6006   10.9259    4.0708 C   0  0  0  0  0  0  0  0  0  0  0  0
   13.0474   11.4195    2.7381 C   0  0  0  0  0  0  0  0  0  0  0  0
   14.9018   10.2852    3.9260 N   0  0  0  0  0  0  0  0  0  0  0  0
   17.4313    5.5377    5.7861 C   0  0  0  0  0  0  0  0  0  0  0  0
   17.5344    4.6566    4.7443 N   0  0  0  0  0  0  0  0  0  0  0  0
   16.9061    5.1825    6.8353 O   0  0  0  0  0  0  0  0  0  0  0  0
   17.1550    3.7304    4.8932 H   0  0  0  0  0  0  0  0  0  0  0  0
   17.9733    4.8455    3.8581 H   0  0  0  0  0  0  0  0  0  0  0  0
 15 16  1  0  0  0
 16 17  1  0  0  0
 17 18  1  0  0  0
 18 21  1  0  0  0
 19 21  1  0  0  0
 19 20  1  0  0  0
 20 15  1  0  0  0
  2 11  2  0  0  0
  3 12  2  0  0  0
  4  5  1  0  0  0
  4  1  2  0  0  0
  6 13  1  0  0  0
  6  7  2  0  0  0
  8  9  2  0  0  0
  9 22  1  0  0  0
 10  5  2  0  0  0
 22 23  1  0  0  0
 21  1  1  0  0  0
 13  3  1  0  0  0
  1 11  1  0  0  0
  2 12  1  0  0  0
  3  4  1  0  0  0
  5  6  1  0  0  0
  7  8  1  0  0  0
  9 10  1  0  0  0
 22 24  2  0  0  0
 13 14  1  0  0  0
 23 25  1  0  0  0
 23 26  1  0  0  0
M  END
> <minimizedAffinity>
-7.72058

$$$$
CHEMBL3356065


 27 30  0  0  0  0  0  0  0  0999 V2000
   15.6133   14.1071    3.2061 C   0  0  0  0  0  0  0  0  0  0  0  0
   15.3764   15.5179    3.8218 C   0  0  0  0  0  0  0  0  0  0  0  0
   15.5461   14.2118    5.9323 C   0  0  0  0  0  0  0  0  0  0  0  0
   14.6531   13.1213    5.3169 C   0  0  0  0  0  0  0  0  0  0  0  0
   14.6826   16.4984    6.0827 C   0  0  0  0  0  0  0  0  0  0  0  0
   16.5406   16.4250    3.4029 C   0  0  0  0  0  0  0  0  0  0  0  0
   14.8436   13.0454    3.8589 N   0  0  0  0  0  0  0  0  0  0  0  0
   15.2427   15.4988    5.2986 N   0  0  0  0  0  0  0  0  0  0  0  0
   14.6602   16.4120    7.3158 O   0  0  0  0  0  0  0  0  0  0  0  0
   12.4463   10.7355    2.2886 C   0  0  0  0  0  0  0  0  0  0  0  0
   11.7721   12.8232    2.0082 C   0  0  0  0  0  0  0  0  0  0  0  0
   13.7721   12.5103    3.1596 C   0  0  0  0  0  0  0  0  0  0  0  0
   13.5992   11.1221    2.9573 C   0  0  0  0  0  0  0  0  0  0  0  0
   14.3405    9.9176    3.2239 C   0  0  0  0  0  0  0  0  0  0  0  0
   13.5759    8.8616    2.7562 C   0  0  0  0  0  0  0  0  0  0  0  0
   15.6835    9.7948    3.8486 C   0  0  0  0  0  0  0  0  0  0  0  0
   11.4858   11.5296    1.7962 N   0  0  0  0  0  0  0  0  0  0  0  0
   12.8404   13.3505    2.6374 N   0  0  0  0  0  0  0  0  0  0  0  0
   12.4354    9.3726    2.1980 N   0  0  0  0  0  0  0  0  0  0  0  0
   11.6955    8.8457    1.7576 H   0  0  0  0  0  0  0  0  0  0  0  0
   14.0479   17.7091    5.4085 C   0  0  0  0  0  0  0  0  0  0  0  0
   14.9897   18.8907    5.3625 C   0  0  0  0  0  0  0  0  0  0  0  0
   16.0425   19.0064    6.2805 C   0  0  0  0  0  0  0  0  0  0  0  0
   16.9262   20.0842    6.2137 C   0  0  0  0  0  0  0  0  0  0  0  0
   16.7681   21.0568    5.2292 C   0  0  0  0  0  0  0  0  0  0  0  0
   15.7286   20.9502    4.3076 C   0  0  0  0  0  0  0  0  0  0  0  0
   14.8458   19.8709    4.3706 C   0  0  0  0  0  0  0  0  0  0  0  0
 11 17  2  0  0  0
 12 18  2  0  0  0
 12  7  1  0  0  0
 13 14  1  0  0  0
 13 10  2  0  0  0
 15 19  1  0  0  0
 16 14  1  0  0  0
  1  7  1  0  0  0
  1  2  1  0  0  0
  2  8  1  0  0  0
  2  6  1  0  0  0
  3  8  1  0  0  0
  3  4  1  0  0  0
  4  7  1  0  0  0
 21  5  1  0  0  0
 21 22  1  0  0  0
 23 24  2  0  0  0
 25 26  2  0  0  0
 27 22  2  0  0  0
 19 10  1  0  0  0
  8  5  1  0  0  0
 10 17  1  0  0  0
 11 18  1  0  0  0
 12 13  1  0  0  0
 14 15  2  0  0  0
  5  9  2  0  0  0
 22 23  1  0  0  0
 24 25  1  0  0  0
 26 27  1  0  0  0
 19 20  1  0  0  0
M  END
> <minimizedAffinity>
-9.26651

$$$$
CHEMBL3356065


 27 30  0  0  0  0  0  0  0  0999 V2000
   17.0619   14.8500    4.1921 C   0  0  0  0  0  0  0  0  0  0  0  0
   16.0340   13.7056    3.9483 C   0  0  0  0  0  0  0  0  0  0  0  0
   15.6422   15.0109    1.8671 C   0  0  0  0  0  0  0  0  0  0  0  0
   15.6605   16.3096    2.6907 C   0  0  0  0  0  0  0  0  0  0  0  0
   14.0125   13.2745    2.4377 C   0  0  0  0  0  0  0  0  0  0  0  0
   16.8023   12.3799    3.8714 C   0  0  0  0  0  0  0  0  0  0  0  0
   16.5487   16.1805    3.8578 N   0  0  0  0  0  0  0  0  0  0  0  0
   15.2177   13.9006    2.7257 N   0  0  0  0  0  0  0  0  0  0  0  0
   13.4280   13.4664    1.3653 O   0  0  0  0  0  0  0  0  0  0  0  0
   16.7972   18.4330    6.7584 C   0  0  0  0  0  0  0  0  0  0  0  0
   14.6902   18.2816    6.1029 C   0  0  0  0  0  0  0  0  0  0  0  0
   16.2542   17.0350    4.9098 C   0  0  0  0  0  0  0  0  0  0  0  0
   17.2373   17.5415    5.7902 C   0  0  0  0  0  0  0  0  0  0  0  0
   18.6468   17.3568    6.0151 C   0  0  0  0  0  0  0  0  0  0  0  0
   18.9993   18.1855    7.0675 C   0  0  0  0  0  0  0  0  0  0  0  0
   19.5703   16.4391    5.2982 C   0  0  0  0  0  0  0  0  0  0  0  0
   15.5425   18.8552    6.9659 N   0  0  0  0  0  0  0  0  0  0  0  0
   14.9635   17.4070    5.1152 N   0  0  0  0  0  0  0  0  0  0  0  0
   17.8723   18.8295    7.5018 N   0  0  0  0  0  0  0  0  0  0  0  0
   17.8136   19.4834    8.2685 H   0  0  0  0  0  0  0  0  0  0  0  0
   13.3772   12.3618    3.4801 C   0  0  0  0  0  0  0  0  0  0  0  0
   13.3507   10.9190    3.0294 C   0  0  0  0  0  0  0  0  0  0  0  0
   12.3523   10.4557    2.1615 C   0  0  0  0  0  0  0  0  0  0  0  0
   12.3509    9.1302    1.7257 C   0  0  0  0  0  0  0  0  0  0  0  0
   13.3468    8.2542    2.1512 C   0  0  0  0  0  0  0  0  0  0  0  0
   14.3477    8.7041    3.0097 C   0  0  0  0  0  0  0  0  0  0  0  0
   14.3527   10.0306    3.4439 C   0  0  0  0  0  0  0  0  0  0  0  0
 11 17  2  0  0  0
 12 18  2  0  0  0
 12  7  1  0  0  0
 13 14  1  0  0  0
 13 10  2  0  0  0
 15 19  1  0  0  0
 16 14  1  0  0  0
  1  7  1  0  0  0
  1  2  1  0  0  0
  2  8  1  0  0  0
  2  6  1  0  0  0
  3  8  1  0  0  0
  3  4  1  0  0  0
  4  7  1  0  0  0
 21  5  1  0  0  0
 21 22  1  0  0  0
 23 24  2  0  0  0
 25 26  2  0  0  0
 27 22  2  0  0  0
 19 10  1  0  0  0
  8  5  1  0  0  0
 10 17  1  0  0  0
 11 18  1  0  0  0
 12 13  1  0  0  0
 14 15  2  0  0  0
  5  9  2  0  0  0
 22 23  1  0  0  0
 24 25  1  0  0  0
 26 27  1  0  0  0
 19 20  1  0  0  0
M  END
> <minimizedAffinity>
-8.68364

$$$$
CHEMBL3356065


 27 30  0  0  0  0  0  0  0  0999 V2000
   16.0471   16.6868    6.3883 C   0  0  0  0  0  0  0  0  0  0  0  0
   15.3867   15.6476    5.4345 C   0  0  0  0  0  0  0  0  0  0  0  0
   17.7610   15.3061    4.7747 C   0  0  0  0  0  0  0  0  0  0  0  0
   17.9654   16.8303    4.7609 C   0  0  0  0  0  0  0  0  0  0  0  0
   16.0351   14.3338    3.3350 C   0  0  0  0  0  0  0  0  0  0  0  0
   14.6848   14.5877    6.2932 C   0  0  0  0  0  0  0  0  0  0  0  0
   17.0939   17.4875    5.7490 N   0  0  0  0  0  0  0  0  0  0  0  0
   16.3507   15.0056    4.5083 N   0  0  0  0  0  0  0  0  0  0  0  0
   16.9087   13.7875    2.6517 O   0  0  0  0  0  0  0  0  0  0  0  0
   17.1926   21.1632    5.5798 C   0  0  0  0  0  0  0  0  0  0  0  0
   15.4988   20.4009    4.3791 C   0  0  0  0  0  0  0  0  0  0  0  0
   16.8057   18.8167    5.4772 C   0  0  0  0  0  0  0  0  0  0  0  0
   17.5687   19.8913    5.9880 C   0  0  0  0  0  0  0  0  0  0  0  0
   18.6676   20.0634    6.9014 C   0  0  0  0  0  0  0  0  0  0  0  0
   18.9378   21.4208    6.9561 C   0  0  0  0  0  0  0  0  0  0  0  0
   19.3783   19.0144    7.6783 C   0  0  0  0  0  0  0  0  0  0  0  0
   16.1765   21.4909    4.7700 N   0  0  0  0  0  0  0  0  0  0  0  0
   15.7407   19.1116    4.6864 N   0  0  0  0  0  0  0  0  0  0  0  0
   18.0408   22.0690    6.1507 N   0  0  0  0  0  0  0  0  0  0  0  0
   17.9786   23.0657    6.0035 H   0  0  0  0  0  0  0  0  0  0  0  0
   14.5875   14.3016    2.8590 C   0  0  0  0  0  0  0  0  0  0  0  0
   14.0044   12.9079    2.9120 C   0  0  0  0  0  0  0  0  0  0  0  0
   14.6153   11.9019    3.6732 C   0  0  0  0  0  0  0  0  0  0  0  0
   14.0553   10.6257    3.7417 C   0  0  0  0  0  0  0  0  0  0  0  0
   12.8793   10.3413    3.0516 C   0  0  0  0  0  0  0  0  0  0  0  0
   12.2596   11.3342    2.2957 C   0  0  0  0  0  0  0  0  0  0  0  0
   12.8163   12.6124    2.2289 C   0  0  0  0  0  0  0  0  0  0  0  0
 11 17  2  0  0  0
 12 18  2  0  0  0
 12  7  1  0  0  0
 13 14  1  0  0  0
 13 10  2  0  0  0
 15 19  1  0  0  0
 16 14  1  0  0  0
  1  7  1  0  0  0
  1  2  1  0  0  0
  2  8  1  0  0  0
  2  6  1  0  0  0
  3  8  1  0  0  0
  3  4  1  0  0  0
  4  7  1  0  0  0
 21  5  1  0  0  0
 21 22  1  0  0  0
 23 24  2  0  0  0
 25 26  2  0  0  0
 27 22  2  0  0  0
 19 10  1  0  0  0
  8  5  1  0  0  0
 10 17  1  0  0  0
 11 18  1  0  0  0
 12 13  1  0  0  0
 14 15  2  0  0  0
  5  9  2  0  0  0
 22 23  1  0  0  0
 24 25  1  0  0  0
 26 27  1  0  0  0
 19 20  1  0  0  0
M  END
> <minimizedAffinity>
-8.43563

$$$$
CHEMBL3356065


 27 30  0  0  0  0  0  0  0  0999 V2000
   16.4210   17.5232    4.7174 C   0  0  0  0  0  0  0  0  0  0  0  0
   16.2835   15.9972    4.4378 C   0  0  0  0  0  0  0  0  0  0  0  0
   14.6273   16.1907    6.2841 C   0  0  0  0  0  0  0  0  0  0  0  0
   15.6142   17.0770    7.0624 C   0  0  0  0  0  0  0  0  0  0  0  0
   15.3299   13.9393    5.6252 C   0  0  0  0  0  0  0  0  0  0  0  0
   15.7867   15.8169    2.9976 C   0  0  0  0  0  0  0  0  0  0  0  0
   16.4591   17.8572    6.1431 N   0  0  0  0  0  0  0  0  0  0  0  0
   15.3771   15.3061    5.3866 N   0  0  0  0  0  0  0  0  0  0  0  0
   14.5025   13.4502    6.4030 O   0  0  0  0  0  0  0  0  0  0  0  0
   19.3611   19.8529    7.2127 C   0  0  0  0  0  0  0  0  0  0  0  0
   19.6084   17.7554    7.8694 C   0  0  0  0  0  0  0  0  0  0  0  0
   17.6756   18.2612    6.6727 C   0  0  0  0  0  0  0  0  0  0  0  0
   18.1533   19.5884    6.5826 C   0  0  0  0  0  0  0  0  0  0  0  0
   17.7449   20.8152    5.9504 C   0  0  0  0  0  0  0  0  0  0  0  0
   18.6926   21.7715    6.2755 C   0  0  0  0  0  0  0  0  0  0  0  0
   16.5595   21.0412    5.0827 C   0  0  0  0  0  0  0  0  0  0  0  0
   20.1363   18.9889    7.8822 N   0  0  0  0  0  0  0  0  0  0  0  0
   18.4544   17.3461    7.3073 N   0  0  0  0  0  0  0  0  0  0  0  0
   19.6587   21.1748    7.0398 N   0  0  0  0  0  0  0  0  0  0  0  0
   20.4873   21.6163    7.4105 H   0  0  0  0  0  0  0  0  0  0  0  0
   16.3434   13.0268    4.9444 C   0  0  0  0  0  0  0  0  0  0  0  0
   15.6948   11.7871    4.3717 C   0  0  0  0  0  0  0  0  0  0  0  0
   16.2474   10.5185    4.5956 C   0  0  0  0  0  0  0  0  0  0  0  0
   15.6272    9.3756    4.0894 C   0  0  0  0  0  0  0  0  0  0  0  0
   14.4488    9.4878    3.3553 C   0  0  0  0  0  0  0  0  0  0  0  0
   13.8868   10.7427    3.1305 C   0  0  0  0  0  0  0  0  0  0  0  0
   14.5038   11.8867    3.6391 C   0  0  0  0  0  0  0  0  0  0  0  0
 11 17  2  0  0  0
 12 18  2  0  0  0
 12  7  1  0  0  0
 13 14  1  0  0  0
 13 10  2  0  0  0
 15 19  1  0  0  0
 16 14  1  0  0  0
  1  7  1  0  0  0
  1  2  1  0  0  0
  2  8  1  0  0  0
  2  6  1  0  0  0
  3  8  1  0  0  0
  3  4  1  0  0  0
  4  7  1  0  0  0
 21  5  1  0  0  0
 21 22  1  0  0  0
 23 24  2  0  0  0
 25 26  2  0  0  0
 27 22  2  0  0  0
 19 10  1  0  0  0
  8  5  1  0  0  0
 10 17  1  0  0  0
 11 18  1  0  0  0
 12 13  1  0  0  0
 14 15  2  0  0  0
  5  9  2  0  0  0
 22 23  1  0  0  0
 24 25  1  0  0  0
 26 27  1  0  0  0
 19 20  1  0  0  0
M  END
> <minimizedAffinity>
-8.06924

$$$$
CHEMBL3356065


 27 30  0  0  0  0  0  0  0  0999 V2000
   14.5277   14.6445    5.0385 C   0  0  0  0  0  0  0  0  0  0  0  0
   15.5152   15.4853    5.9007 C   0  0  0  0  0  0  0  0  0  0  0  0
   16.3829   16.0833    3.6471 C   0  0  0  0  0  0  0  0  0  0  0  0
   16.2788   14.6075    3.2271 C   0  0  0  0  0  0  0  0  0  0  0  0
   17.7653   16.6646    5.5830 C   0  0  0  0  0  0  0  0  0  0  0  0
   14.7012   16.5175    6.6916 C   0  0  0  0  0  0  0  0  0  0  0  0
   15.1730   13.9365    3.9303 N   0  0  0  0  0  0  0  0  0  0  0  0
   16.5654   16.1600    5.1000 N   0  0  0  0  0  0  0  0  0  0  0  0
   18.5589   17.2563    4.8424 O   0  0  0  0  0  0  0  0  0  0  0  0
   14.6832   10.3018    3.6171 C   0  0  0  0  0  0  0  0  0  0  0  0
   16.5147   10.7153    4.7861 C   0  0  0  0  0  0  0  0  0  0  0  0
   15.3044   12.5602    4.0412 C   0  0  0  0  0  0  0  0  0  0  0  0
   14.3856   11.6495    3.4719 C   0  0  0  0  0  0  0  0  0  0  0  0
   13.1273   11.7175    2.7766 C   0  0  0  0  0  0  0  0  0  0  0  0
   12.7558   10.4151    2.4864 C   0  0  0  0  0  0  0  0  0  0  0  0
   12.3348   12.9306    2.4454 C   0  0  0  0  0  0  0  0  0  0  0  0
   15.7339    9.7641    4.2515 N   0  0  0  0  0  0  0  0  0  0  0  0
   16.3604   12.0525    4.7295 N   0  0  0  0  0  0  0  0  0  0  0  0
   13.7070    9.5742    2.9979 N   0  0  0  0  0  0  0  0  0  0  0  0
   13.6989    8.5656    2.9586 H   0  0  0  0  0  0  0  0  0  0  0  0
   18.1296   16.4513    7.0476 C   0  0  0  0  0  0  0  0  0  0  0  0
   19.1110   15.3156    7.2279 C   0  0  0  0  0  0  0  0  0  0  0  0
   18.9135   14.0864    6.5837 C   0  0  0  0  0  0  0  0  0  0  0  0
   19.8388   13.0524    6.7305 C   0  0  0  0  0  0  0  0  0  0  0  0
   20.9709   13.2354    7.5212 C   0  0  0  0  0  0  0  0  0  0  0  0
   21.1811   14.4543    8.1624 C   0  0  0  0  0  0  0  0  0  0  0  0
   20.2584   15.4911    8.0139 C   0  0  0  0  0  0  0  0  0  0  0  0
 11 17  2  0  0  0
 12 18  2  0  0  0
 12  7  1  0  0  0
 13 14  1  0  0  0
 13 10  2  0  0  0
 15 19  1  0  0  0
 16 14  1  0  0  0
  1  7  1  0  0  0
  1  2  1  0  0  0
  2  8  1  0  0  0
  2  6  1  0  0  0
  3  8  1  0  0  0
  3  4  1  0  0  0
  4  7  1  0  0  0
 21  5  1  0  0  0
 21 22  1  0  0  0
 23 24  2  0  0  0
 25 26  2  0  0  0
 27 22  2  0  0  0
 19 10  1  0  0  0
  8  5  1  0  0  0
 10 17  1  0  0  0
 11 18  1  0  0  0
 12 13  1  0  0  0
 14 15  2  0  0  0
  5  9  2  0  0  0
 22 23  1  0  0  0
 24 25  1  0  0  0
 26 27  1  0  0  0
 19 20  1  0  0  0
M  END
> <minimizedAffinity>
-7.99435

$$$$
CHEMBL3356065


 27 30  0  0  0  0  0  0  0  0999 V2000
   15.8087   16.4550    3.0483 C   0  0  0  0  0  0  0  0  0  0  0  0
   15.8729   14.9215    2.7839 C   0  0  0  0  0  0  0  0  0  0  0  0
   14.1189   14.9244    4.5481 C   0  0  0  0  0  0  0  0  0  0  0  0
   14.9513   15.9318    5.3591 C   0  0  0  0  0  0  0  0  0  0  0  0
   15.1231   12.7714    3.9540 C   0  0  0  0  0  0  0  0  0  0  0  0
   15.4717   14.6698    1.3247 C   0  0  0  0  0  0  0  0  0  0  0  0
   15.7371   16.8027    4.4694 N   0  0  0  0  0  0  0  0  0  0  0  0
   15.0137   14.1317    3.6988 N   0  0  0  0  0  0  0  0  0  0  0  0
   14.3256   12.1905    4.6991 O   0  0  0  0  0  0  0  0  0  0  0  0
   18.1257   19.1087    6.0587 C   0  0  0  0  0  0  0  0  0  0  0  0
   19.0316   17.0996    5.8720 C   0  0  0  0  0  0  0  0  0  0  0  0
   16.8682   17.3576    5.0494 C   0  0  0  0  0  0  0  0  0  0  0  0
   16.9493   18.7144    5.4372 C   0  0  0  0  0  0  0  0  0  0  0  0
   16.1292   19.8923    5.3298 C   0  0  0  0  0  0  0  0  0  0  0  0
   16.8232   20.9240    5.9400 C   0  0  0  0  0  0  0  0  0  0  0  0
   14.8036   20.0215    4.6700 C   0  0  0  0  0  0  0  0  0  0  0  0
   19.2021   18.3536    6.3175 N   0  0  0  0  0  0  0  0  0  0  0  0
   17.9561   16.5703    5.2567 N   0  0  0  0  0  0  0  0  0  0  0  0
   18.0239   20.4332    6.3768 N   0  0  0  0  0  0  0  0  0  0  0  0
   18.7511   20.9554    6.8432 H   0  0  0  0  0  0  0  0  0  0  0  0
   16.2723   11.9852    3.3339 C   0  0  0  0  0  0  0  0  0  0  0  0
   16.3224   10.5613    3.8391 C   0  0  0  0  0  0  0  0  0  0  0  0
   17.1720   10.2030    4.8948 C   0  0  0  0  0  0  0  0  0  0  0  0
   17.1914    8.8934    5.3761 C   0  0  0  0  0  0  0  0  0  0  0  0
   16.3622    7.9287    4.8088 C   0  0  0  0  0  0  0  0  0  0  0  0
   15.5095    8.2736    3.7623 C   0  0  0  0  0  0  0  0  0  0  0  0
   15.4861    9.5838    3.2819 C   0  0  0  0  0  0  0  0  0  0  0  0
 11 17  2  0  0  0
 12 18  2  0  0  0
 12  7  1  0  0  0
 13 14  1  0  0  0
 13 10  2  0  0  0
 15 19  1  0  0  0
 16 14  1  0  0  0
  1  7  1  0  0  0
  1  2  1  0  0  0
  2  8  1  0  0  0
  2  6  1  0  0  0
  3  8  1  0  0  0
  3  4  1  0  0  0
  4  7  1  0  0  0
 21  5  1  0  0  0
 21 22  1  0  0  0
 23 24  2  0  0  0
 25 26  2  0  0  0
 27 22  2  0  0  0
 19 10  1  0  0  0
  8  5  1  0  0  0
 10 17  1  0  0  0
 11 18  1  0  0  0
 12 13  1  0  0  0
 14 15  2  0  0  0
  5  9  2  0  0  0
 22 23  1  0  0  0
 24 25  1  0  0  0
 26 27  1  0  0  0
 19 20  1  0  0  0
M  END
> <minimizedAffinity>
-7.82684

$$$$
CHEMBL3356065


 27 30  0  0  0  0  0  0  0  0999 V2000
   19.2354   13.8871    4.9649 C   0  0  0  0  0  0  0  0  0  0  0  0
   17.7311   13.5009    4.8487 C   0  0  0  0  0  0  0  0  0  0  0  0
   17.4853   15.9764    4.8256 C   0  0  0  0  0  0  0  0  0  0  0  0
   18.5046   16.0778    5.9728 C   0  0  0  0  0  0  0  0  0  0  0  0
   15.4602   14.6411    5.1608 C   0  0  0  0  0  0  0  0  0  0  0  0
   17.5379   12.7137    3.5462 C   0  0  0  0  0  0  0  0  0  0  0  0
   19.4886   14.9849    5.9010 N   0  0  0  0  0  0  0  0  0  0  0  0
   16.8205   14.6708    4.8844 N   0  0  0  0  0  0  0  0  0  0  0  0
   14.7727   15.6678    5.1191 O   0  0  0  0  0  0  0  0  0  0  0  0
   21.9559   14.2221    8.5239 C   0  0  0  0  0  0  0  0  0  0  0  0
   19.9251   14.2844    9.3978 C   0  0  0  0  0  0  0  0  0  0  0  0
   20.0958   14.6691    7.1073 C   0  0  0  0  0  0  0  0  0  0  0  0
   21.4894   14.4746    7.2415 C   0  0  0  0  0  0  0  0  0  0  0  0
   22.6344   14.4169    6.3713 C   0  0  0  0  0  0  0  0  0  0  0  0
   23.7401   14.1901    7.1741 C   0  0  0  0  0  0  0  0  0  0  0  0
   22.6592   14.5399    4.8904 C   0  0  0  0  0  0  0  0  0  0  0  0
   21.2334   14.1237    9.6481 N   0  0  0  0  0  0  0  0  0  0  0  0
   19.3246   14.5351    8.2181 N   0  0  0  0  0  0  0  0  0  0  0  0
   23.3131   14.0782    8.4698 N   0  0  0  0  0  0  0  0  0  0  0  0
   23.8901   13.8929    9.2771 H   0  0  0  0  0  0  0  0  0  0  0  0
   14.8082   13.3229    5.5617 C   0  0  0  0  0  0  0  0  0  0  0  0
   14.1192   12.6534    4.3944 C   0  0  0  0  0  0  0  0  0  0  0  0
   13.4940   13.4141    3.3967 C   0  0  0  0  0  0  0  0  0  0  0  0
   12.8859   12.7907    2.3065 C   0  0  0  0  0  0  0  0  0  0  0  0
   12.8966   11.4019    2.2009 C   0  0  0  0  0  0  0  0  0  0  0  0
   13.5193   10.6350    3.1835 C   0  0  0  0  0  0  0  0  0  0  0  0
   14.1313   11.2569    4.2729 C   0  0  0  0  0  0  0  0  0  0  0  0
 11 17  2  0  0  0
 12 18  2  0  0  0
 12  7  1  0  0  0
 13 14  1  0  0  0
 13 10  2  0  0  0
 15 19  1  0  0  0
 16 14  1  0  0  0
  1  7  1  0  0  0
  1  2  1  0  0  0
  2  8  1  0  0  0
  2  6  1  0  0  0
  3  8  1  0  0  0
  3  4  1  0  0  0
  4  7  1  0  0  0
 21  5  1  0  0  0
 21 22  1  0  0  0
 23 24  2  0  0  0
 25 26  2  0  0  0
 27 22  2  0  0  0
 19 10  1  0  0  0
  8  5  1  0  0  0
 10 17  1  0  0  0
 11 18  1  0  0  0
 12 13  1  0  0  0
 14 15  2  0  0  0
  5  9  2  0  0  0
 22 23  1  0  0  0
 24 25  1  0  0  0
 26 27  1  0  0  0
 19 20  1  0  0  0
M  END
> <minimizedAffinity>
-7.79699

$$$$
CHEMBL3356065


 27 30  0  0  0  0  0  0  0  0999 V2000
   17.5024   15.0829    4.1046 C   0  0  0  0  0  0  0  0  0  0  0  0
   16.4977   13.8968    4.0083 C   0  0  0  0  0  0  0  0  0  0  0  0
   15.8124   15.1355    1.9626 C   0  0  0  0  0  0  0  0  0  0  0  0
   15.8780   16.4539    2.7517 C   0  0  0  0  0  0  0  0  0  0  0  0
   14.3298   13.3564    2.7583 C   0  0  0  0  0  0  0  0  0  0  0  0
   17.3021   12.5980    3.8671 C   0  0  0  0  0  0  0  0  0  0  0  0
   16.9024   16.3856    3.8070 N   0  0  0  0  0  0  0  0  0  0  0  0
   15.5356   14.0322    2.8879 N   0  0  0  0  0  0  0  0  0  0  0  0
   13.6155   13.5008    1.7596 O   0  0  0  0  0  0  0  0  0  0  0  0
   15.3914   18.3732    6.5117 C   0  0  0  0  0  0  0  0  0  0  0  0
   17.5817   18.6800    6.4871 C   0  0  0  0  0  0  0  0  0  0  0  0
   16.7018   17.2546    4.8692 C   0  0  0  0  0  0  0  0  0  0  0  0
   15.4256   17.5274    5.4121 C   0  0  0  0  0  0  0  0  0  0  0  0
   14.0584   17.1943    5.1099 C   0  0  0  0  0  0  0  0  0  0  0  0
   13.2721   17.8063    6.0721 C   0  0  0  0  0  0  0  0  0  0  0  0
   13.5492   16.3808    3.9750 C   0  0  0  0  0  0  0  0  0  0  0  0
   16.4293   18.9761    7.1074 N   0  0  0  0  0  0  0  0  0  0  0  0
   17.7748   17.8810    5.4196 N   0  0  0  0  0  0  0  0  0  0  0  0
   14.0925   18.5107    6.9113 N   0  0  0  0  0  0  0  0  0  0  0  0
   13.8043   19.0740    7.6978 H   0  0  0  0  0  0  0  0  0  0  0  0
   13.8579   12.4475    3.8873 C   0  0  0  0  0  0  0  0  0  0  0  0
   13.8536   10.9920    3.4788 C   0  0  0  0  0  0  0  0  0  0  0  0
   14.9286   10.1522    3.8007 C   0  0  0  0  0  0  0  0  0  0  0  0
   14.9048    8.8026    3.4468 C   0  0  0  0  0  0  0  0  0  0  0  0
   13.8071    8.2779    2.7688 C   0  0  0  0  0  0  0  0  0  0  0  0
   12.7299    9.1013    2.4477 C   0  0  0  0  0  0  0  0  0  0  0  0
   12.7504   10.4506    2.8040 C   0  0  0  0  0  0  0  0  0  0  0  0
 11 17  2  0  0  0
 12 18  2  0  0  0
 12  7  1  0  0  0
 13 14  1  0  0  0
 13 10  2  0  0  0
 15 19  1  0  0  0
 16 14  1  0  0  0
  1  7  1  0  0  0
  1  2  1  0  0  0
  2  8  1  0  0  0
  2  6  1  0  0  0
  3  8  1  0  0  0
  3  4  1  0  0  0
  4  7  1  0  0  0
 21  5  1  0  0  0
 21 22  1  0  0  0
 23 24  2  0  0  0
 25 26  2  0  0  0
 27 22  2  0  0  0
 19 10  1  0  0  0
  8  5  1  0  0  0
 10 17  1  0  0  0
 11 18  1  0  0  0
 12 13  1  0  0  0
 14 15  2  0  0  0
  5  9  2  0  0  0
 22 23  1  0  0  0
 24 25  1  0  0  0
 26 27  1  0  0  0
 19 20  1  0  0  0
M  END
> <minimizedAffinity>
-7.49474

$$$$
CHEMBL3356065


 27 30  0  0  0  0  0  0  0  0999 V2000
   14.5669   14.8749    5.1736 C   0  0  0  0  0  0  0  0  0  0  0  0
   15.6766   15.6742    5.9187 C   0  0  0  0  0  0  0  0  0  0  0  0
   16.2781   16.2859    3.5835 C   0  0  0  0  0  0  0  0  0  0  0  0
   16.0808   14.8206    3.1601 C   0  0  0  0  0  0  0  0  0  0  0  0
   17.9037   16.7975    5.3420 C   0  0  0  0  0  0  0  0  0  0  0  0
   14.9958   16.7148    6.8173 C   0  0  0  0  0  0  0  0  0  0  0  0
   15.0507   14.1682    3.9852 N   0  0  0  0  0  0  0  0  0  0  0  0
   16.6396   16.3336    5.0038 N   0  0  0  0  0  0  0  0  0  0  0  0
   18.6173   17.3797    4.5171 O   0  0  0  0  0  0  0  0  0  0  0  0
   14.4898   10.5530    3.5793 C   0  0  0  0  0  0  0  0  0  0  0  0
   16.3282   10.9004    4.7590 C   0  0  0  0  0  0  0  0  0  0  0  0
   15.1550   12.7872    4.0610 C   0  0  0  0  0  0  0  0  0  0  0  0
   14.2189   11.9095    3.4684 C   0  0  0  0  0  0  0  0  0  0  0  0
   12.9627   12.0200    2.7747 C   0  0  0  0  0  0  0  0  0  0  0  0
   12.5659   10.7329    2.4513 C   0  0  0  0  0  0  0  0  0  0  0  0
   12.1944   13.2564    2.4743 C   0  0  0  0  0  0  0  0  0  0  0  0
   15.5293    9.9787    4.2001 N   0  0  0  0  0  0  0  0  0  0  0  0
   16.2002   12.2415    4.7364 N   0  0  0  0  0  0  0  0  0  0  0  0
   13.5000    9.8608    2.9414 N   0  0  0  0  0  0  0  0  0  0  0  0
   13.4722    8.8538    2.8764 H   0  0  0  0  0  0  0  0  0  0  0  0
   18.4387   16.5502    6.7477 C   0  0  0  0  0  0  0  0  0  0  0  0
   18.9050   17.8269    7.4093 C   0  0  0  0  0  0  0  0  0  0  0  0
   19.9592   17.8139    8.3330 C   0  0  0  0  0  0  0  0  0  0  0  0
   20.4045   19.0001    8.9175 C   0  0  0  0  0  0  0  0  0  0  0  0
   19.8023   20.2113    8.5850 C   0  0  0  0  0  0  0  0  0  0  0  0
   18.7570   20.2380    7.6643 C   0  0  0  0  0  0  0  0  0  0  0  0
   18.3126   19.0530    7.0759 C   0  0  0  0  0  0  0  0  0  0  0  0
 11 17  2  0  0  0
 12 18  2  0  0  0
 12  7  1  0  0  0
 13 14  1  0  0  0
 13 10  2  0  0  0
 15 19  1  0  0  0
 16 14  1  0  0  0
  1  7  1  0  0  0
  1  2  1  0  0  0
  2  8  1  0  0  0
  2  6  1  0  0  0
  3  8  1  0  0  0
  3  4  1  0  0  0
  4  7  1  0  0  0
 21  5  1  0  0  0
 21 22  1  0  0  0
 23 24  2  0  0  0
 25 26  2  0  0  0
 27 22  2  0  0  0
 19 10  1  0  0  0
  8  5  1  0  0  0
 10 17  1  0  0  0
 11 18  1  0  0  0
 12 13  1  0  0  0
 14 15  2  0  0  0
  5  9  2  0  0  0
 22 23  1  0  0  0
 24 25  1  0  0  0
 26 27  1  0  0  0
 19 20  1  0  0  0
M  END
> <minimizedAffinity>
-7.47711

$$$$
CHEMBL1630790


 28 31  0  0  0  0  0  0  0  0999 V2000
   14.9068   12.3944    3.8240 N   0  0  0  0  0  0  0  0  0  0  0  0
   15.4494   14.8304    4.2476 C   0  0  0  0  0  0  0  0  0  0  0  0
   14.6438   13.5729    4.6754 C   0  0  0  0  0  0  0  0  0  0  0  0
   16.3373   12.1137    3.7620 C   0  0  0  0  0  0  0  0  0  0  0  0
   17.1568   13.2940    3.2080 C   0  0  0  0  0  0  0  0  0  0  0  0
   16.3694   14.6117    3.0187 C   0  0  0  0  0  0  0  0  0  0  0  0
   15.6912   14.6229    1.6448 C   0  0  0  0  0  0  0  0  0  0  0  0
   14.6808   16.0970    4.2136 N   0  0  0  0  0  0  0  0  0  0  0  0
   13.3856   16.0834    3.5581 C   0  0  0  0  0  0  0  0  0  0  0  0
   14.6115   18.4493    4.3972 N   0  0  0  0  0  0  0  0  0  0  0  0
   15.9121   19.7970    5.9075 N   0  0  0  0  0  0  0  0  0  0  0  0
   17.4463   18.5313    7.2156 N   0  0  0  0  0  0  0  0  0  0  0  0
   14.9952   19.6102    4.9531 C   0  0  0  0  0  0  0  0  0  0  0  0
   16.4638   18.6333    6.2717 C   0  0  0  0  0  0  0  0  0  0  0  0
   17.8323   17.2261    7.3447 C   0  0  0  0  0  0  0  0  0  0  0  0
   17.0656   16.4813    6.4725 C   0  0  0  0  0  0  0  0  0  0  0  0
   16.1689   17.3619    5.7886 C   0  0  0  0  0  0  0  0  0  0  0  0
   15.1544   17.2662    4.7971 C   0  0  0  0  0  0  0  0  0  0  0  0
   17.8230   19.3246    7.7147 H   0  0  0  0  0  0  0  0  0  0  0  0
   14.1164   11.2369    4.2556 C   0  0  0  0  0  0  0  0  0  0  0  0
   13.3423   10.6368    3.1055 C   0  0  0  0  0  0  0  0  0  0  0  0
   12.3363   11.3565    2.4573 C   0  0  0  0  0  0  0  0  0  0  0  0
   11.6484   10.7994    1.3829 C   0  0  0  0  0  0  0  0  0  0  0  0
   11.9439    9.5143    0.9381 C   0  0  0  0  0  0  0  0  0  0  0  0
   12.9449    8.7812    1.5734 C   0  0  0  0  0  0  0  0  0  0  0  0
   13.6438    9.3419    2.6466 C   0  0  0  0  0  0  0  0  0  0  0  0
   10.6871   11.4991    0.7635 F   0  0  0  0  0  0  0  0  0  0  0  0
   12.0276   12.5962    2.8674 F   0  0  0  0  0  0  0  0  0  0  0  0
 12 15  1  0  0  0
 13 11  2  0  0  0
 14 12  1  0  0  0
 16 17  1  0  0  0
 17 14  2  0  0  0
 18  8  1  0  0  0
 18 10  2  0  0  0
  2  8  1  0  0  0
  2  3  1  0  0  0
  3  1  1  0  0  0
  4  1  1  0  0  0
  4  5  1  0  0  0
  5  6  1  0  0  0
  6  7  1  0  0  0
  6  2  1  0  0  0
 20  1  1  0  0  0
 20 21  1  0  0  0
 22 23  2  0  0  0
 22 28  1  0  0  0
 23 27  1  0  0  0
 24 25  2  0  0  0
 26 21  2  0  0  0
  9  8  1  0  0  0
 13 10  1  0  0  0
 14 11  1  0  0  0
 15 16  2  0  0  0
 17 18  1  0  0  0
 21 22  1  0  0  0
 23 24  1  0  0  0
 25 26  1  0  0  0
 12 19  1  0  0  0
M  END
> <minimizedAffinity>
-9.38701

$$$$
CHEMBL1630790


 28 31  0  0  0  0  0  0  0  0999 V2000
   15.5468   13.5652    4.4861 N   0  0  0  0  0  0  0  0  0  0  0  0
   16.1625   15.9792    4.9349 C   0  0  0  0  0  0  0  0  0  0  0  0
   16.1851   14.5066    5.4290 C   0  0  0  0  0  0  0  0  0  0  0  0
   16.1367   13.6891    3.1574 C   0  0  0  0  0  0  0  0  0  0  0  0
   16.0080   15.1084    2.5738 C   0  0  0  0  0  0  0  0  0  0  0  0
   15.4805   16.1797    3.5567 C   0  0  0  0  0  0  0  0  0  0  0  0
   13.9483   16.1904    3.5459 C   0  0  0  0  0  0  0  0  0  0  0  0
   15.7823   16.9863    5.9534 N   0  0  0  0  0  0  0  0  0  0  0  0
   14.7004   16.6524    6.8618 C   0  0  0  0  0  0  0  0  0  0  0  0
   17.4492   18.3135    6.9692 N   0  0  0  0  0  0  0  0  0  0  0  0
   17.9768   20.5969    6.4251 N   0  0  0  0  0  0  0  0  0  0  0  0
   16.5483   21.5225    4.7609 N   0  0  0  0  0  0  0  0  0  0  0  0
   18.1476   19.4535    7.0960 C   0  0  0  0  0  0  0  0  0  0  0  0
   16.9580   20.4953    5.5632 C   0  0  0  0  0  0  0  0  0  0  0  0
   15.4678   21.1306    4.0204 C   0  0  0  0  0  0  0  0  0  0  0  0
   15.1958   19.8190    4.3503 C   0  0  0  0  0  0  0  0  0  0  0  0
   16.1511   19.3869    5.3240 C   0  0  0  0  0  0  0  0  0  0  0  0
   16.4353   18.2080    6.0662 C   0  0  0  0  0  0  0  0  0  0  0  0
   16.9888   22.4314    4.7520 H   0  0  0  0  0  0  0  0  0  0  0  0
   15.5793   12.1916    4.9989 C   0  0  0  0  0  0  0  0  0  0  0  0
   14.7688   11.2584    4.1305 C   0  0  0  0  0  0  0  0  0  0  0  0
   15.1298    9.9182    3.9758 C   0  0  0  0  0  0  0  0  0  0  0  0
   14.3590    9.0641    3.1920 C   0  0  0  0  0  0  0  0  0  0  0  0
   13.2192    9.5290    2.5426 C   0  0  0  0  0  0  0  0  0  0  0  0
   12.8440   10.8638    2.6855 C   0  0  0  0  0  0  0  0  0  0  0  0
   13.6110   11.7214    3.4796 C   0  0  0  0  0  0  0  0  0  0  0  0
   14.7104    7.7779    3.0526 F   0  0  0  0  0  0  0  0  0  0  0  0
   16.2259    9.4438    4.5872 F   0  0  0  0  0  0  0  0  0  0  0  0
 12 15  1  0  0  0
 13 11  2  0  0  0
 14 12  1  0  0  0
 16 17  1  0  0  0
 17 14  2  0  0  0
 18  8  1  0  0  0
 18 10  2  0  0  0
  2  8  1  0  0  0
  2  3  1  0  0  0
  3  1  1  0  0  0
  4  1  1  0  0  0
  4  5  1  0  0  0
  5  6  1  0  0  0
  6  7  1  0  0  0
  6  2  1  0  0  0
 20  1  1  0  0  0
 20 21  1  0  0  0
 22 23  2  0  0  0
 22 28  1  0  0  0
 23 27  1  0  0  0
 24 25  2  0  0  0
 26 21  2  0  0  0
  9  8  1  0  0  0
 13 10  1  0  0  0
 14 11  1  0  0  0
 15 16  2  0  0  0
 17 18  1  0  0  0
 21 22  1  0  0  0
 23 24  1  0  0  0
 25 26  1  0  0  0
 12 19  1  0  0  0
M  END
> <minimizedAffinity>
-9.32805

$$$$
CHEMBL1630790


 28 31  0  0  0  0  0  0  0  0999 V2000
   16.0903   16.0414    4.1296 N   0  0  0  0  0  0  0  0  0  0  0  0
   14.5890   14.0875    3.5494 C   0  0  0  0  0  0  0  0  0  0  0  0
   14.9427   15.2152    4.5577 C   0  0  0  0  0  0  0  0  0  0  0  0
   15.8676   16.5762    2.7904 C   0  0  0  0  0  0  0  0  0  0  0  0
   15.6516   15.4771    1.7337 C   0  0  0  0  0  0  0  0  0  0  0  0
   15.4997   14.0439    2.2951 C   0  0  0  0  0  0  0  0  0  0  0  0
   16.8800   13.4028    2.4728 C   0  0  0  0  0  0  0  0  0  0  0  0
   14.3171   12.7600    4.1494 N   0  0  0  0  0  0  0  0  0  0  0  0
   14.6665   12.5654    5.5448 C   0  0  0  0  0  0  0  0  0  0  0  0
   12.5856   11.9906    2.7417 N   0  0  0  0  0  0  0  0  0  0  0  0
   12.3875    9.7825    1.8071 N   0  0  0  0  0  0  0  0  0  0  0  0
   14.1059    8.2992    2.5237 N   0  0  0  0  0  0  0  0  0  0  0  0
   11.9953   11.0471    1.9899 C   0  0  0  0  0  0  0  0  0  0  0  0
   13.4968    9.5220    2.5091 C   0  0  0  0  0  0  0  0  0  0  0  0
   15.1904    8.3307    3.3557 C   0  0  0  0  0  0  0  0  0  0  0  0
   15.2793    9.6082    3.8687 C   0  0  0  0  0  0  0  0  0  0  0  0
   14.2140   10.3928    3.3241 C   0  0  0  0  0  0  0  0  0  0  0  0
   13.7326   11.7267    3.4266 C   0  0  0  0  0  0  0  0  0  0  0  0
   13.7699    7.5038    1.9995 H   0  0  0  0  0  0  0  0  0  0  0  0
   16.3961   17.0825    5.1162 C   0  0  0  0  0  0  0  0  0  0  0  0
   15.1381   17.6350    5.7441 C   0  0  0  0  0  0  0  0  0  0  0  0
   14.4898   18.7485    5.2055 C   0  0  0  0  0  0  0  0  0  0  0  0
   13.3176   19.2312    5.7805 C   0  0  0  0  0  0  0  0  0  0  0  0
   12.7726   18.6194    6.9055 C   0  0  0  0  0  0  0  0  0  0  0  0
   13.4063   17.5070    7.4568 C   0  0  0  0  0  0  0  0  0  0  0  0
   14.5785   17.0144    6.8756 C   0  0  0  0  0  0  0  0  0  0  0  0
   12.6994   20.2980    5.2542 F   0  0  0  0  0  0  0  0  0  0  0  0
   14.9950   19.3605    4.1235 F   0  0  0  0  0  0  0  0  0  0  0  0
 12 15  1  0  0  0
 13 11  2  0  0  0
 14 12  1  0  0  0
 16 17  1  0  0  0
 17 14  2  0  0  0
 18  8  1  0  0  0
 18 10  2  0  0  0
  2  8  1  0  0  0
  2  3  1  0  0  0
  3  1  1  0  0  0
  4  1  1  0  0  0
  4  5  1  0  0  0
  5  6  1  0  0  0
  6  7  1  0  0  0
  6  2  1  0  0  0
 20  1  1  0  0  0
 20 21  1  0  0  0
 22 23  2  0  0  0
 22 28  1  0  0  0
 23 27  1  0  0  0
 24 25  2  0  0  0
 26 21  2  0  0  0
  9  8  1  0  0  0
 13 10  1  0  0  0
 14 11  1  0  0  0
 15 16  2  0  0  0
 17 18  1  0  0  0
 21 22  1  0  0  0
 23 24  1  0  0  0
 25 26  1  0  0  0
 12 19  1  0  0  0
M  END
> <minimizedAffinity>
-9.23926

$$$$
CHEMBL1630790


 28 31  0  0  0  0  0  0  0  0999 V2000
   15.0724   16.0510    3.4949 N   0  0  0  0  0  0  0  0  0  0  0  0
   14.4650   13.6409    3.0145 C   0  0  0  0  0  0  0  0  0  0  0  0
   14.0909   14.9709    3.7249 C   0  0  0  0  0  0  0  0  0  0  0  0
   15.2884   16.2539    2.0663 C   0  0  0  0  0  0  0  0  0  0  0  0
   15.7965   14.9885    1.3507 C   0  0  0  0  0  0  0  0  0  0  0  0
   15.7864   13.6993    2.2052 C   0  0  0  0  0  0  0  0  0  0  0  0
   17.0869   13.5942    3.0086 C   0  0  0  0  0  0  0  0  0  0  0  0
   14.3077   12.4161    3.8337 N   0  0  0  0  0  0  0  0  0  0  0  0
   14.5464   12.5235    5.2616 C   0  0  0  0  0  0  0  0  0  0  0  0
   12.8288   11.1729    2.4776 N   0  0  0  0  0  0  0  0  0  0  0  0
   12.9982    8.8280    1.9667 N   0  0  0  0  0  0  0  0  0  0  0  0
   14.8114    7.7521    3.0720 N   0  0  0  0  0  0  0  0  0  0  0  0
   12.4357   10.0372    1.8782 C   0  0  0  0  0  0  0  0  0  0  0  0
   14.0589    8.8550    2.7825 C   0  0  0  0  0  0  0  0  0  0  0  0
   15.7987    8.0833    3.9580 C   0  0  0  0  0  0  0  0  0  0  0  0
   15.6780    9.4315    4.2247 C   0  0  0  0  0  0  0  0  0  0  0  0
   14.5803    9.9491    3.4667 C   0  0  0  0  0  0  0  0  0  0  0  0
   13.9287   11.1989    3.2800 C   0  0  0  0  0  0  0  0  0  0  0  0
   14.6292    6.8369    2.6854 H   0  0  0  0  0  0  0  0  0  0  0  0
   14.6861   17.2811    4.1939 C   0  0  0  0  0  0  0  0  0  0  0  0
   15.8866   17.9783    4.7894 C   0  0  0  0  0  0  0  0  0  0  0  0
   15.8052   19.2956    5.2458 C   0  0  0  0  0  0  0  0  0  0  0  0
   16.9134   19.9167    5.8149 C   0  0  0  0  0  0  0  0  0  0  0  0
   18.1244   19.2413    5.9342 C   0  0  0  0  0  0  0  0  0  0  0  0
   18.2241   17.9260    5.4837 C   0  0  0  0  0  0  0  0  0  0  0  0
   17.1100   17.2967    4.9204 C   0  0  0  0  0  0  0  0  0  0  0  0
   16.8251   21.1801    6.2545 F   0  0  0  0  0  0  0  0  0  0  0  0
   14.6513   19.9722    5.1398 F   0  0  0  0  0  0  0  0  0  0  0  0
 12 15  1  0  0  0
 13 11  2  0  0  0
 14 12  1  0  0  0
 16 17  1  0  0  0
 17 14  2  0  0  0
 18  8  1  0  0  0
 18 10  2  0  0  0
  2  8  1  0  0  0
  2  3  1  0  0  0
  3  1  1  0  0  0
  4  1  1  0  0  0
  4  5  1  0  0  0
  5  6  1  0  0  0
  6  7  1  0  0  0
  6  2  1  0  0  0
 20  1  1  0  0  0
 20 21  1  0  0  0
 22 23  2  0  0  0
 22 28  1  0  0  0
 23 27  1  0  0  0
 24 25  2  0  0  0
 26 21  2  0  0  0
  9  8  1  0  0  0
 13 10  1  0  0  0
 14 11  1  0  0  0
 15 16  2  0  0  0
 17 18  1  0  0  0
 21 22  1  0  0  0
 23 24  1  0  0  0
 25 26  1  0  0  0
 12 19  1  0  0  0
M  END
> <minimizedAffinity>
-9.10488

$$$$
CHEMBL1630790


 28 31  0  0  0  0  0  0  0  0999 V2000
   14.8554   15.9305    3.8852 N   0  0  0  0  0  0  0  0  0  0  0  0
   14.4278   13.5672    3.0851 C   0  0  0  0  0  0  0  0  0  0  0  0
   13.9024   14.8016    3.8685 C   0  0  0  0  0  0  0  0  0  0  0  0
   15.2495   16.2909    2.5274 C   0  0  0  0  0  0  0  0  0  0  0  0
   15.9052   15.1254    1.7637 C   0  0  0  0  0  0  0  0  0  0  0  0
   15.8408   13.7530    2.4740 C   0  0  0  0  0  0  0  0  0  0  0  0
   17.0267   13.6042    3.4329 C   0  0  0  0  0  0  0  0  0  0  0  0
   14.2194   12.2578    3.7471 N   0  0  0  0  0  0  0  0  0  0  0  0
   14.5032   12.1667    5.1677 C   0  0  0  0  0  0  0  0  0  0  0  0
   14.4273    9.9712    3.1991 N   0  0  0  0  0  0  0  0  0  0  0  0
   12.9388    8.7035    1.7971 N   0  0  0  0  0  0  0  0  0  0  0  0
   11.1887   10.0136    0.8548 N   0  0  0  0  0  0  0  0  0  0  0  0
   14.0024    8.8506    2.5930 C   0  0  0  0  0  0  0  0  0  0  0  0
   12.2999    9.8685    1.6363 C   0  0  0  0  0  0  0  0  0  0  0  0
   10.7858   11.3201    0.8587 C   0  0  0  0  0  0  0  0  0  0  0  0
   11.6536   12.0167    1.6742 C   0  0  0  0  0  0  0  0  0  0  0  0
   12.6206   11.1011    2.1975 C   0  0  0  0  0  0  0  0  0  0  0  0
   13.7524   11.1454    3.0568 C   0  0  0  0  0  0  0  0  0  0  0  0
   10.7616    9.2516    0.3477 H   0  0  0  0  0  0  0  0  0  0  0  0
   14.3240   17.0664    4.6456 C   0  0  0  0  0  0  0  0  0  0  0  0
   15.4286   17.8423    5.3237 C   0  0  0  0  0  0  0  0  0  0  0  0
   15.6166   19.2029    5.0716 C   0  0  0  0  0  0  0  0  0  0  0  0
   16.6232   19.9104    5.7228 C   0  0  0  0  0  0  0  0  0  0  0  0
   17.4652   19.2760    6.6314 C   0  0  0  0  0  0  0  0  0  0  0  0
   17.2923   17.9183    6.8951 C   0  0  0  0  0  0  0  0  0  0  0  0
   16.2761   17.2076    6.2496 C   0  0  0  0  0  0  0  0  0  0  0  0
   16.7937   21.2174    5.4781 F   0  0  0  0  0  0  0  0  0  0  0  0
   14.8220   19.8393    4.1975 F   0  0  0  0  0  0  0  0  0  0  0  0
 12 15  1  0  0  0
 13 11  2  0  0  0
 14 12  1  0  0  0
 16 17  1  0  0  0
 17 14  2  0  0  0
 18  8  1  0  0  0
 18 10  2  0  0  0
  2  8  1  0  0  0
  2  3  1  0  0  0
  3  1  1  0  0  0
  4  1  1  0  0  0
  4  5  1  0  0  0
  5  6  1  0  0  0
  6  7  1  0  0  0
  6  2  1  0  0  0
 20  1  1  0  0  0
 20 21  1  0  0  0
 22 23  2  0  0  0
 22 28  1  0  0  0
 23 27  1  0  0  0
 24 25  2  0  0  0
 26 21  2  0  0  0
  9  8  1  0  0  0
 13 10  1  0  0  0
 14 11  1  0  0  0
 15 16  2  0  0  0
 17 18  1  0  0  0
 21 22  1  0  0  0
 23 24  1  0  0  0
 25 26  1  0  0  0
 12 19  1  0  0  0
M  END
> <minimizedAffinity>
-9.04480

$$$$
CHEMBL1630790


 28 31  0  0  0  0  0  0  0  0999 V2000
   15.6377   13.3394    4.3079 N   0  0  0  0  0  0  0  0  0  0  0  0
   15.9314   15.8353    4.6119 C   0  0  0  0  0  0  0  0  0  0  0  0
   16.1220   14.4110    5.2023 C   0  0  0  0  0  0  0  0  0  0  0  0
   16.2507   13.4544    2.9888 C   0  0  0  0  0  0  0  0  0  0  0  0
   15.9644   14.8068    2.3101 C   0  0  0  0  0  0  0  0  0  0  0  0
   15.2752   15.8615    3.2072 C   0  0  0  0  0  0  0  0  0  0  0  0
   13.7549   15.6767    3.1580 C   0  0  0  0  0  0  0  0  0  0  0  0
   15.3949   16.8472    5.5523 N   0  0  0  0  0  0  0  0  0  0  0  0
   14.5612   16.3789    6.6445 C   0  0  0  0  0  0  0  0  0  0  0  0
   14.8829   18.9522    4.6149 N   0  0  0  0  0  0  0  0  0  0  0  0
   16.0229   21.0232    5.0612 N   0  0  0  0  0  0  0  0  0  0  0  0
   17.8851   20.7768    6.5236 N   0  0  0  0  0  0  0  0  0  0  0  0
   15.0795   20.2741    4.4824 C   0  0  0  0  0  0  0  0  0  0  0  0
   16.8220   20.2728    5.8291 C   0  0  0  0  0  0  0  0  0  0  0  0
   18.5292   19.7673    7.1834 C   0  0  0  0  0  0  0  0  0  0  0  0
   17.8489   18.5980    6.9126 C   0  0  0  0  0  0  0  0  0  0  0  0
   16.7402   18.9030    6.0613 C   0  0  0  0  0  0  0  0  0  0  0  0
   15.6802   18.2015    5.4243 C   0  0  0  0  0  0  0  0  0  0  0  0
   18.1419   21.7537    6.5164 H   0  0  0  0  0  0  0  0  0  0  0  0
   15.8252   12.0156    4.9106 C   0  0  0  0  0  0  0  0  0  0  0  0
   15.0522   10.9541    4.1638 C   0  0  0  0  0  0  0  0  0  0  0  0
   15.5277    9.6444    4.0704 C   0  0  0  0  0  0  0  0  0  0  0  0
   14.7922    8.6711    3.3999 C   0  0  0  0  0  0  0  0  0  0  0  0
   13.5739    8.9843    2.8045 C   0  0  0  0  0  0  0  0  0  0  0  0
   13.0840   10.2866    2.8874 C   0  0  0  0  0  0  0  0  0  0  0  0
   13.8161   11.2638    3.5683 C   0  0  0  0  0  0  0  0  0  0  0  0
   15.2541    7.4151    3.3190 F   0  0  0  0  0  0  0  0  0  0  0  0
   16.7011    9.3151    4.6317 F   0  0  0  0  0  0  0  0  0  0  0  0
 12 15  1  0  0  0
 13 11  2  0  0  0
 14 12  1  0  0  0
 16 17  1  0  0  0
 17 14  2  0  0  0
 18  8  1  0  0  0
 18 10  2  0  0  0
  2  8  1  0  0  0
  2  3  1  0  0  0
  3  1  1  0  0  0
  4  1  1  0  0  0
  4  5  1  0  0  0
  5  6  1  0  0  0
  6  7  1  0  0  0
  6  2  1  0  0  0
 20  1  1  0  0  0
 20 21  1  0  0  0
 22 23  2  0  0  0
 22 28  1  0  0  0
 23 27  1  0  0  0
 24 25  2  0  0  0
 26 21  2  0  0  0
  9  8  1  0  0  0
 13 10  1  0  0  0
 14 11  1  0  0  0
 15 16  2  0  0  0
 17 18  1  0  0  0
 21 22  1  0  0  0
 23 24  1  0  0  0
 25 26  1  0  0  0
 12 19  1  0  0  0
M  END
> <minimizedAffinity>
-9.03208

$$$$
CHEMBL1630790


 28 31  0  0  0  0  0  0  0  0999 V2000
   16.1230   15.0906    4.0697 N   0  0  0  0  0  0  0  0  0  0  0  0
   15.0686   12.8939    3.3834 C   0  0  0  0  0  0  0  0  0  0  0  0
   15.4594   14.3428    2.9818 C   0  0  0  0  0  0  0  0  0  0  0  0
   17.2743   14.3501    4.5747 C   0  0  0  0  0  0  0  0  0  0  0  0
   16.9018   12.9562    5.1132 C   0  0  0  0  0  0  0  0  0  0  0  0
   15.4467   12.5105    4.8376 C   0  0  0  0  0  0  0  0  0  0  0  0
   14.5225   13.0282    5.9446 C   0  0  0  0  0  0  0  0  0  0  0  0
   13.7098   12.4653    2.9756 N   0  0  0  0  0  0  0  0  0  0  0  0
   12.6677   13.4749    2.9333 C   0  0  0  0  0  0  0  0  0  0  0  0
   12.3219   10.9180    1.8569 N   0  0  0  0  0  0  0  0  0  0  0  0
   12.6690    8.5417    1.7117 N   0  0  0  0  0  0  0  0  0  0  0  0
   14.5683    7.7912    2.9349 N   0  0  0  0  0  0  0  0  0  0  0  0
   12.0137    9.6764    1.4481 C   0  0  0  0  0  0  0  0  0  0  0  0
   13.7303    8.7755    2.4929 C   0  0  0  0  0  0  0  0  0  0  0  0
   15.5333    8.3298    3.7398 C   0  0  0  0  0  0  0  0  0  0  0  0
   15.3104    9.6901    3.7969 C   0  0  0  0  0  0  0  0  0  0  0  0
   14.1703    9.9989    2.9894 C   0  0  0  0  0  0  0  0  0  0  0  0
   13.4223   11.1516    2.6243 C   0  0  0  0  0  0  0  0  0  0  0  0
   14.4547    6.8158    2.6981 H   0  0  0  0  0  0  0  0  0  0  0  0
   16.4611   16.4547    3.6507 C   0  0  0  0  0  0  0  0  0  0  0  0
   15.7057   17.4838    4.4584 C   0  0  0  0  0  0  0  0  0  0  0  0
   16.3508   18.6036    4.9876 C   0  0  0  0  0  0  0  0  0  0  0  0
   15.6366   19.5563    5.7088 C   0  0  0  0  0  0  0  0  0  0  0  0
   14.2692   19.4091    5.9224 C   0  0  0  0  0  0  0  0  0  0  0  0
   13.6089   18.2974    5.4018 C   0  0  0  0  0  0  0  0  0  0  0  0
   14.3220   17.3440    4.6690 C   0  0  0  0  0  0  0  0  0  0  0  0
   16.2631   20.6305    6.2095 F   0  0  0  0  0  0  0  0  0  0  0  0
   17.6692   18.7692    4.8004 F   0  0  0  0  0  0  0  0  0  0  0  0
 12 15  1  0  0  0
 13 11  2  0  0  0
 14 12  1  0  0  0
 16 17  1  0  0  0
 17 14  2  0  0  0
 18  8  1  0  0  0
 18 10  2  0  0  0
  2  8  1  0  0  0
  2  3  1  0  0  0
  3  1  1  0  0  0
  4  1  1  0  0  0
  4  5  1  0  0  0
  5  6  1  0  0  0
  6  7  1  0  0  0
  6  2  1  0  0  0
 20  1  1  0  0  0
 20 21  1  0  0  0
 22 23  2  0  0  0
 22 28  1  0  0  0
 23 27  1  0  0  0
 24 25  2  0  0  0
 26 21  2  0  0  0
  9  8  1  0  0  0
 13 10  1  0  0  0
 14 11  1  0  0  0
 15 16  2  0  0  0
 17 18  1  0  0  0
 21 22  1  0  0  0
 23 24  1  0  0  0
 25 26  1  0  0  0
 12 19  1  0  0  0
M  END
> <minimizedAffinity>
-8.74113

$$$$
CHEMBL1630790


 28 31  0  0  0  0  0  0  0  0999 V2000
   14.8919   15.4024    4.8718 N   0  0  0  0  0  0  0  0  0  0  0  0
   14.9872   12.9783    4.1486 C   0  0  0  0  0  0  0  0  0  0  0  0
   14.9032   13.9947    5.3205 C   0  0  0  0  0  0  0  0  0  0  0  0
   13.8271   15.6235    3.8991 C   0  0  0  0  0  0  0  0  0  0  0  0
   13.9572   14.7276    2.6532 C   0  0  0  0  0  0  0  0  0  0  0  0
   15.0421   13.6288    2.7421 C   0  0  0  0  0  0  0  0  0  0  0  0
   16.3963   14.1942    2.3013 C   0  0  0  0  0  0  0  0  0  0  0  0
   15.9449   11.8638    4.3406 N   0  0  0  0  0  0  0  0  0  0  0  0
   17.2594   12.1861    4.8655 C   0  0  0  0  0  0  0  0  0  0  0  0
   16.4470    9.5624    4.4924 N   0  0  0  0  0  0  0  0  0  0  0  0
   15.1038    7.7547    3.6460 N   0  0  0  0  0  0  0  0  0  0  0  0
   13.1628    8.4897    2.4801 N   0  0  0  0  0  0  0  0  0  0  0  0
   16.1611    8.2669    4.2833 C   0  0  0  0  0  0  0  0  0  0  0  0
   14.3068    8.7276    3.1881 C   0  0  0  0  0  0  0  0  0  0  0  0
   12.5852    9.6753    2.1194 C   0  0  0  0  0  0  0  0  0  0  0  0
   13.3741   10.6885    2.6239 C   0  0  0  0  0  0  0  0  0  0  0  0
   14.4728   10.1022    3.3283 C   0  0  0  0  0  0  0  0  0  0  0  0
   15.6137   10.5452    4.0519 C   0  0  0  0  0  0  0  0  0  0  0  0
   12.8288    7.5629    2.2573 H   0  0  0  0  0  0  0  0  0  0  0  0
   14.8255   16.3249    6.0100 C   0  0  0  0  0  0  0  0  0  0  0  0
   14.9350   17.7635    5.5621 C   0  0  0  0  0  0  0  0  0  0  0  0
   13.8137   18.5947    5.5187 C   0  0  0  0  0  0  0  0  0  0  0  0
   13.9344   19.9252    5.1274 C   0  0  0  0  0  0  0  0  0  0  0  0
   15.1712   20.4512    4.7660 C   0  0  0  0  0  0  0  0  0  0  0  0
   16.3012   19.6359    4.8032 C   0  0  0  0  0  0  0  0  0  0  0  0
   16.1843   18.3020    5.2047 C   0  0  0  0  0  0  0  0  0  0  0  0
   12.8534   20.7174    5.0929 F   0  0  0  0  0  0  0  0  0  0  0  0
   12.6081   18.1132    5.8580 F   0  0  0  0  0  0  0  0  0  0  0  0
 12 15  1  0  0  0
 13 11  2  0  0  0
 14 12  1  0  0  0
 16 17  1  0  0  0
 17 14  2  0  0  0
 18  8  1  0  0  0
 18 10  2  0  0  0
  2  8  1  0  0  0
  2  3  1  0  0  0
  3  1  1  0  0  0
  4  1  1  0  0  0
  4  5  1  0  0  0
  5  6  1  0  0  0
  6  7  1  0  0  0
  6  2  1  0  0  0
 20  1  1  0  0  0
 20 21  1  0  0  0
 22 23  2  0  0  0
 22 28  1  0  0  0
 23 27  1  0  0  0
 24 25  2  0  0  0
 26 21  2  0  0  0
  9  8  1  0  0  0
 13 10  1  0  0  0
 14 11  1  0  0  0
 15 16  2  0  0  0
 17 18  1  0  0  0
 21 22  1  0  0  0
 23 24  1  0  0  0
 25 26  1  0  0  0
 12 19  1  0  0  0
M  END
> <minimizedAffinity>
-8.67935

$$$$
CHEMBL1630790


 28 31  0  0  0  0  0  0  0  0999 V2000
   14.9943   15.3189    5.0758 N   0  0  0  0  0  0  0  0  0  0  0  0
   14.2872   13.2290    3.8347 C   0  0  0  0  0  0  0  0  0  0  0  0
   14.3847   13.9781    5.1922 C   0  0  0  0  0  0  0  0  0  0  0  0
   14.2923   16.1180    4.0770 C   0  0  0  0  0  0  0  0  0  0  0  0
   14.2961   15.4703    2.6799 C   0  0  0  0  0  0  0  0  0  0  0  0
   14.8429   14.0245    2.6252 C   0  0  0  0  0  0  0  0  0  0  0  0
   16.3663   14.0474    2.4622 C   0  0  0  0  0  0  0  0  0  0  0  0
   14.6940   11.8043    3.8637 N   0  0  0  0  0  0  0  0  0  0  0  0
   15.8131   11.4388    4.7130 C   0  0  0  0  0  0  0  0  0  0  0  0
   14.5372    9.5657    3.1314 N   0  0  0  0  0  0  0  0  0  0  0  0
   12.8018    8.6410    1.7451 N   0  0  0  0  0  0  0  0  0  0  0  0
   11.2073   10.2571    1.0290 N   0  0  0  0  0  0  0  0  0  0  0  0
   13.9202    8.5706    2.4737 C   0  0  0  0  0  0  0  0  0  0  0  0
   12.3296    9.8930    1.7178 C   0  0  0  0  0  0  0  0  0  0  0  0
   10.9983   11.6019    1.1597 C   0  0  0  0  0  0  0  0  0  0  0  0
   12.0037   12.0992    1.9629 C   0  0  0  0  0  0  0  0  0  0  0  0
   12.8572   11.0169    2.3467 C   0  0  0  0  0  0  0  0  0  0  0  0
   14.0318   10.8302    3.1257 C   0  0  0  0  0  0  0  0  0  0  0  0
   10.6458    9.6076    0.4968 H   0  0  0  0  0  0  0  0  0  0  0  0
   15.0780   15.9823    6.3811 C   0  0  0  0  0  0  0  0  0  0  0  0
   16.4185   16.6510    6.5759 C   0  0  0  0  0  0  0  0  0  0  0  0
   17.6015   15.9090    6.5898 C   0  0  0  0  0  0  0  0  0  0  0  0
   18.8316   16.5420    6.7455 C   0  0  0  0  0  0  0  0  0  0  0  0
   18.9068   17.9234    6.8967 C   0  0  0  0  0  0  0  0  0  0  0  0
   17.7361   18.6799    6.8855 C   0  0  0  0  0  0  0  0  0  0  0  0
   16.5003   18.0478    6.7199 C   0  0  0  0  0  0  0  0  0  0  0  0
   19.9627   15.8224    6.7532 F   0  0  0  0  0  0  0  0  0  0  0  0
   17.5586   14.5752    6.4500 F   0  0  0  0  0  0  0  0  0  0  0  0
 12 15  1  0  0  0
 13 11  2  0  0  0
 14 12  1  0  0  0
 16 17  1  0  0  0
 17 14  2  0  0  0
 18  8  1  0  0  0
 18 10  2  0  0  0
  2  8  1  0  0  0
  2  3  1  0  0  0
  3  1  1  0  0  0
  4  1  1  0  0  0
  4  5  1  0  0  0
  5  6  1  0  0  0
  6  7  1  0  0  0
  6  2  1  0  0  0
 20  1  1  0  0  0
 20 21  1  0  0  0
 22 23  2  0  0  0
 22 28  1  0  0  0
 23 27  1  0  0  0
 24 25  2  0  0  0
 26 21  2  0  0  0
  9  8  1  0  0  0
 13 10  1  0  0  0
 14 11  1  0  0  0
 15 16  2  0  0  0
 17 18  1  0  0  0
 21 22  1  0  0  0
 23 24  1  0  0  0
 25 26  1  0  0  0
 12 19  1  0  0  0
M  END
> <minimizedAffinity>
-8.63033

$$$$
CHEMBL4167162


 29 32  0  0  0  0  0  0  0  0999 V2000
   13.2907   13.6391    3.2310 C   0  0  0  0  0  0  0  0  0  0  0  0
   12.1632   13.5628    2.4212 C   0  0  0  0  0  0  0  0  0  0  0  0
   11.7556   12.3274    1.9005 C   0  0  0  0  0  0  0  0  0  0  0  0
   12.4472   11.1492    2.1577 C   0  0  0  0  0  0  0  0  0  0  0  0
   13.5875   11.2001    2.9699 C   0  0  0  0  0  0  0  0  0  0  0  0
   13.9822   12.4591    3.5036 C   0  0  0  0  0  0  0  0  0  0  0  0
   14.2527    9.9655    3.1792 C   0  0  0  0  0  0  0  0  0  0  0  0
   12.6866    8.9089    1.8852 C   0  0  0  0  0  0  0  0  0  0  0  0
   13.7879    8.8264    2.6363 N   0  0  0  0  0  0  0  0  0  0  0  0
   11.9922   10.0182    1.6169 N   0  0  0  0  0  0  0  0  0  0  0  0
   14.6198   15.7626    3.2171 C   0  0  0  0  0  0  0  0  0  0  0  0
   13.6670   14.8993    3.7443 N   0  0  0  0  0  0  0  0  0  0  0  0
   15.2457   15.5946    2.1718 O   0  0  0  0  0  0  0  0  0  0  0  0
   13.1766   15.2192    4.5695 H   0  0  0  0  0  0  0  0  0  0  0  0
   14.8898   16.9885    4.0940 C   0  0  0  0  0  0  0  0  0  0  0  0
   14.7741   16.8600    6.5427 C   0  0  0  0  0  0  0  0  0  0  0  0
   13.8152   17.3915    7.6003 C   0  0  0  0  0  0  0  0  0  0  0  0
   12.7800   18.2100    6.8419 C   0  0  0  0  0  0  0  0  0  0  0  0
   13.2488   18.2038    5.3986 C   0  0  0  0  0  0  0  0  0  0  0  0
   14.0320   16.9717    5.2883 N   0  0  0  0  0  0  0  0  0  0  0  0
   15.4138    9.9254    3.9874 N   0  0  0  0  0  0  0  0  0  0  0  0
   15.8524   10.8248    4.1167 H   0  0  0  0  0  0  0  0  0  0  0  0
   16.1873    8.8819    4.5274 C   0  0  0  0  0  0  0  0  0  0  0  0
   17.1693    9.2163    5.4802 C   0  0  0  0  0  0  0  0  0  0  0  0
   17.9775    8.2406    6.0715 C   0  0  0  0  0  0  0  0  0  0  0  0
   17.8084    6.9069    5.7213 C   0  0  0  0  0  0  0  0  0  0  0  0
   16.8366    6.5477    4.7933 C   0  0  0  0  0  0  0  0  0  0  0  0
   16.0289    7.5312    4.2069 C   0  0  0  0  0  0  0  0  0  0  0  0
   18.8009    5.6998    6.4389 Cl  0  0  0  0  0  0  0  0  0  0  0  0
  1 12  1  0  0  0
  2  3  2  0  0  0
  4  5  2  0  0  0
  4 10  1  0  0  0
  5  7  1  0  0  0
  6  1  2  0  0  0
  7 21  1  0  0  0
  8  9  1  0  0  0
 24 25  2  0  0  0
 26 27  2  0  0  0
 26 29  1  0  0  0
 28 23  2  0  0  0
 15 11  1  0  0  0
 15 20  1  0  0  0
 16 20  1  0  0  0
 16 17  1  0  0  0
 17 18  1  0  0  0
 18 19  1  0  0  0
 19 20  1  0  0  0
 21 23  1  0  0  0
 12 11  1  0  0  0
  1  2  1  0  0  0
  3  4  1  0  0  0
  5  6  1  0  0  0
  7  9  2  0  0  0
  8 10  2  0  0  0
 23 24  1  0  0  0
 25 26  1  0  0  0
 27 28  1  0  0  0
 11 13  2  0  0  0
 21 22  1  0  0  0
 12 14  1  0  0  0
M  END
> <minimizedAffinity>
-9.50634

$$$$
CHEMBL4167162


 29 32  0  0  0  0  0  0  0  0999 V2000
   17.9881   15.0827    5.3693 C   0  0  0  0  0  0  0  0  0  0  0  0
   19.3466   14.7892    5.3333 C   0  0  0  0  0  0  0  0  0  0  0  0
   19.7742   13.4681    5.1457 C   0  0  0  0  0  0  0  0  0  0  0  0
   18.8812   12.4130    4.9971 C   0  0  0  0  0  0  0  0  0  0  0  0
   17.5070   12.6828    5.0311 C   0  0  0  0  0  0  0  0  0  0  0  0
   17.0864   14.0310    5.2082 C   0  0  0  0  0  0  0  0  0  0  0  0
   16.6530   11.5599    4.8882 C   0  0  0  0  0  0  0  0  0  0  0  0
   18.4844   10.1993    4.6929 C   0  0  0  0  0  0  0  0  0  0  0  0
   17.1549   10.3247    4.7132 N   0  0  0  0  0  0  0  0  0  0  0  0
   19.3751   11.1858    4.8284 N   0  0  0  0  0  0  0  0  0  0  0  0
   17.4050   17.0811    6.7629 C   0  0  0  0  0  0  0  0  0  0  0  0
   17.5940   16.4260    5.5520 N   0  0  0  0  0  0  0  0  0  0  0  0
   17.6173   16.6098    7.8789 O   0  0  0  0  0  0  0  0  0  0  0  0
   17.4565   16.9775    4.7150 H   0  0  0  0  0  0  0  0  0  0  0  0
   16.8400   18.4965    6.6136 C   0  0  0  0  0  0  0  0  0  0  0  0
   14.4634   17.9261    6.8431 C   0  0  0  0  0  0  0  0  0  0  0  0
   13.1691   18.4635    6.2461 C   0  0  0  0  0  0  0  0  0  0  0  0
   13.5768   19.6463    5.3791 C   0  0  0  0  0  0  0  0  0  0  0  0
   15.0698   19.8047    5.6003 C   0  0  0  0  0  0  0  0  0  0  0  0
   15.5138   18.4620    5.9792 N   0  0  0  0  0  0  0  0  0  0  0  0
   15.2496   11.7417    4.9106 N   0  0  0  0  0  0  0  0  0  0  0  0
   14.8752   11.9149    5.8313 H   0  0  0  0  0  0  0  0  0  0  0  0
   14.2327   11.5802    3.9522 C   0  0  0  0  0  0  0  0  0  0  0  0
   13.6023   12.7398    3.4604 C   0  0  0  0  0  0  0  0  0  0  0  0
   12.5867   12.6702    2.5020 C   0  0  0  0  0  0  0  0  0  0  0  0
   12.1900   11.4317    2.0133 C   0  0  0  0  0  0  0  0  0  0  0  0
   12.8055   10.2717    2.4718 C   0  0  0  0  0  0  0  0  0  0  0  0
   13.8243   10.3500    3.4307 C   0  0  0  0  0  0  0  0  0  0  0  0
   10.9381   11.3349    0.8383 Cl  0  0  0  0  0  0  0  0  0  0  0  0
  1 12  1  0  0  0
  2  3  2  0  0  0
  4  5  2  0  0  0
  4 10  1  0  0  0
  5  7  1  0  0  0
  6  1  2  0  0  0
  7 21  1  0  0  0
  8  9  1  0  0  0
 24 25  2  0  0  0
 26 27  2  0  0  0
 26 29  1  0  0  0
 28 23  2  0  0  0
 15 11  1  0  0  0
 15 20  1  0  0  0
 16 20  1  0  0  0
 16 17  1  0  0  0
 17 18  1  0  0  0
 18 19  1  0  0  0
 19 20  1  0  0  0
 21 23  1  0  0  0
 12 11  1  0  0  0
  1  2  1  0  0  0
  3  4  1  0  0  0
  5  6  1  0  0  0
  7  9  2  0  0  0
  8 10  2  0  0  0
 23 24  1  0  0  0
 25 26  1  0  0  0
 27 28  1  0  0  0
 11 13  2  0  0  0
 21 22  1  0  0  0
 12 14  1  0  0  0
M  END
> <minimizedAffinity>
-9.29263

$$$$
CHEMBL4167162


 29 32  0  0  0  0  0  0  0  0999 V2000
   13.6369   13.7943    3.3418 C   0  0  0  0  0  0  0  0  0  0  0  0
   12.4576   13.8123    2.6057 C   0  0  0  0  0  0  0  0  0  0  0  0
   11.9175   12.6154    2.1166 C   0  0  0  0  0  0  0  0  0  0  0  0
   12.5249   11.3839    2.3335 C   0  0  0  0  0  0  0  0  0  0  0  0
   13.7149   11.3395    3.0713 C   0  0  0  0  0  0  0  0  0  0  0  0
   14.2450   12.5610    3.5743 C   0  0  0  0  0  0  0  0  0  0  0  0
   14.2884   10.0540    3.2425 C   0  0  0  0  0  0  0  0  0  0  0  0
   12.5616    9.1318    2.0547 C   0  0  0  0  0  0  0  0  0  0  0  0
   13.6979    8.9579    2.7345 N   0  0  0  0  0  0  0  0  0  0  0  0
   11.9450   10.2950    1.8270 N   0  0  0  0  0  0  0  0  0  0  0  0
   15.0948   15.8273    3.2096 C   0  0  0  0  0  0  0  0  0  0  0  0
   14.1474   15.0184    3.8256 N   0  0  0  0  0  0  0  0  0  0  0  0
   15.5953   15.6371    2.1024 O   0  0  0  0  0  0  0  0  0  0  0  0
   13.7683   15.3551    4.7012 H   0  0  0  0  0  0  0  0  0  0  0  0
   15.5356   17.0178    4.0657 C   0  0  0  0  0  0  0  0  0  0  0  0
   17.8456   17.4234    4.7909 C   0  0  0  0  0  0  0  0  0  0  0  0
   18.6026   17.2577    6.1024 C   0  0  0  0  0  0  0  0  0  0  0  0
   17.5704   16.7825    7.1151 C   0  0  0  0  0  0  0  0  0  0  0  0
   16.2475   16.8001    6.3717 C   0  0  0  0  0  0  0  0  0  0  0  0
   16.6301   16.6312    4.9686 N   0  0  0  0  0  0  0  0  0  0  0  0
   15.4914    9.9174    3.9754 N   0  0  0  0  0  0  0  0  0  0  0  0
   16.0170   10.7743    4.0606 H   0  0  0  0  0  0  0  0  0  0  0  0
   16.2009    8.8138    4.4829 C   0  0  0  0  0  0  0  0  0  0  0  0
   17.1915    9.0589    5.4538 C   0  0  0  0  0  0  0  0  0  0  0  0
   17.9389    8.0192    6.0154 C   0  0  0  0  0  0  0  0  0  0  0  0
   17.6991    6.7103    5.6164 C   0  0  0  0  0  0  0  0  0  0  0  0
   16.7172    6.4390    4.6694 C   0  0  0  0  0  0  0  0  0  0  0  0
   15.9706    7.4863    4.1130 C   0  0  0  0  0  0  0  0  0  0  0  0
   18.6166    5.4250    6.2971 Cl  0  0  0  0  0  0  0  0  0  0  0  0
  1 12  1  0  0  0
  2  3  2  0  0  0
  4  5  2  0  0  0
  4 10  1  0  0  0
  5  7  1  0  0  0
  6  1  2  0  0  0
  7 21  1  0  0  0
  8  9  1  0  0  0
 24 25  2  0  0  0
 26 27  2  0  0  0
 26 29  1  0  0  0
 28 23  2  0  0  0
 15 11  1  0  0  0
 15 20  1  0  0  0
 16 20  1  0  0  0
 16 17  1  0  0  0
 17 18  1  0  0  0
 18 19  1  0  0  0
 19 20  1  0  0  0
 21 23  1  0  0  0
 12 11  1  0  0  0
  1  2  1  0  0  0
  3  4  1  0  0  0
  5  6  1  0  0  0
  7  9  2  0  0  0
  8 10  2  0  0  0
 23 24  1  0  0  0
 25 26  1  0  0  0
 27 28  1  0  0  0
 11 13  2  0  0  0
 21 22  1  0  0  0
 12 14  1  0  0  0
M  END
> <minimizedAffinity>
-8.96020

$$$$
CHEMBL4167162


 29 32  0  0  0  0  0  0  0  0999 V2000
   14.9762    9.4616    3.6777 C   0  0  0  0  0  0  0  0  0  0  0  0
   14.3728    8.4404    2.9524 C   0  0  0  0  0  0  0  0  0  0  0  0
   13.2606    8.7153    2.1457 C   0  0  0  0  0  0  0  0  0  0  0  0
   12.7170    9.9905    2.0407 C   0  0  0  0  0  0  0  0  0  0  0  0
   13.3063   11.0363    2.7629 C   0  0  0  0  0  0  0  0  0  0  0  0
   14.4440   10.7460    3.5673 C   0  0  0  0  0  0  0  0  0  0  0  0
   12.6932   12.3071    2.6216 C   0  0  0  0  0  0  0  0  0  0  0  0
   11.1596   11.4009    1.1828 C   0  0  0  0  0  0  0  0  0  0  0  0
   11.6245   12.4767    1.8233 N   0  0  0  0  0  0  0  0  0  0  0  0
   11.6539   10.1618    1.2539 N   0  0  0  0  0  0  0  0  0  0  0  0
   17.3526    9.7480    4.4171 C   0  0  0  0  0  0  0  0  0  0  0  0
   16.0997    9.1493    4.4735 N   0  0  0  0  0  0  0  0  0  0  0  0
   17.6657   10.6998    3.7039 O   0  0  0  0  0  0  0  0  0  0  0  0
   15.9750    8.4302    5.1742 H   0  0  0  0  0  0  0  0  0  0  0  0
   18.3933    9.0804    5.3204 C   0  0  0  0  0  0  0  0  0  0  0  0
   18.5268    6.6351    5.1512 C   0  0  0  0  0  0  0  0  0  0  0  0
   18.3120    5.4797    6.1205 C   0  0  0  0  0  0  0  0  0  0  0  0
   18.0076    6.1235    7.4658 C   0  0  0  0  0  0  0  0  0  0  0  0
   18.1674    7.6153    7.2372 C   0  0  0  0  0  0  0  0  0  0  0  0
   17.9023    7.7825    5.8070 N   0  0  0  0  0  0  0  0  0  0  0  0
   13.2241   13.4202    3.3160 N   0  0  0  0  0  0  0  0  0  0  0  0
   12.5628   14.1700    3.4517 H   0  0  0  0  0  0  0  0  0  0  0  0
   14.5199   13.7826    3.7264 C   0  0  0  0  0  0  0  0  0  0  0  0
   14.7674   13.8841    5.1093 C   0  0  0  0  0  0  0  0  0  0  0  0
   16.0281   14.2324    5.6035 C   0  0  0  0  0  0  0  0  0  0  0  0
   17.0678   14.4784    4.7155 C   0  0  0  0  0  0  0  0  0  0  0  0
   16.8541   14.3717    3.3452 C   0  0  0  0  0  0  0  0  0  0  0  0
   15.5883   14.0197    2.8579 C   0  0  0  0  0  0  0  0  0  0  0  0
   18.6207   14.9127    5.3130 Cl  0  0  0  0  0  0  0  0  0  0  0  0
  1 12  1  0  0  0
  2  3  2  0  0  0
  4  5  2  0  0  0
  4 10  1  0  0  0
  5  7  1  0  0  0
  6  1  2  0  0  0
  7 21  1  0  0  0
  8  9  1  0  0  0
 24 25  2  0  0  0
 26 27  2  0  0  0
 26 29  1  0  0  0
 28 23  2  0  0  0
 15 11  1  0  0  0
 15 20  1  0  0  0
 16 20  1  0  0  0
 16 17  1  0  0  0
 17 18  1  0  0  0
 18 19  1  0  0  0
 19 20  1  0  0  0
 21 23  1  0  0  0
 12 11  1  0  0  0
  1  2  1  0  0  0
  3  4  1  0  0  0
  5  6  1  0  0  0
  7  9  2  0  0  0
  8 10  2  0  0  0
 23 24  1  0  0  0
 25 26  1  0  0  0
 27 28  1  0  0  0
 11 13  2  0  0  0
 21 22  1  0  0  0
 12 14  1  0  0  0
M  END
> <minimizedAffinity>
-8.92282

$$$$
CHEMBL4167162


 29 32  0  0  0  0  0  0  0  0999 V2000
   15.4976    9.4145    4.1156 C   0  0  0  0  0  0  0  0  0  0  0  0
   14.5847    8.7004    3.3476 C   0  0  0  0  0  0  0  0  0  0  0  0
   13.5314    9.3680    2.7088 C   0  0  0  0  0  0  0  0  0  0  0  0
   13.3501   10.7422    2.8160 C   0  0  0  0  0  0  0  0  0  0  0  0
   14.2559   11.4839    3.5853 C   0  0  0  0  0  0  0  0  0  0  0  0
   15.3293   10.7952    4.2172 C   0  0  0  0  0  0  0  0  0  0  0  0
   14.0039   12.8771    3.6640 C   0  0  0  0  0  0  0  0  0  0  0  0
   12.1757   12.6172    2.3099 C   0  0  0  0  0  0  0  0  0  0  0  0
   12.9642   13.4316    3.0162 N   0  0  0  0  0  0  0  0  0  0  0  0
   12.3171   11.2951    2.1790 N   0  0  0  0  0  0  0  0  0  0  0  0
   17.8857    9.0911    4.7998 C   0  0  0  0  0  0  0  0  0  0  0  0
   16.5508    8.7099    4.7380 N   0  0  0  0  0  0  0  0  0  0  0  0
   18.3550   10.1458    4.3757 O   0  0  0  0  0  0  0  0  0  0  0  0
   16.3059    7.8482    5.2085 H   0  0  0  0  0  0  0  0  0  0  0  0
   18.7979    8.0332    5.4271 C   0  0  0  0  0  0  0  0  0  0  0  0
   18.5603    5.6306    4.9832 C   0  0  0  0  0  0  0  0  0  0  0  0
   18.0435    4.4390    5.7790 C   0  0  0  0  0  0  0  0  0  0  0  0
   17.6782    4.9885    7.1507 C   0  0  0  0  0  0  0  0  0  0  0  0
   18.1012    6.4457    7.1200 C   0  0  0  0  0  0  0  0  0  0  0  0
   18.0489    6.7974    5.6998 N   0  0  0  0  0  0  0  0  0  0  0  0
   14.8700   13.7023    4.4204 N   0  0  0  0  0  0  0  0  0  0  0  0
   15.5620   13.1921    4.9484 H   0  0  0  0  0  0  0  0  0  0  0  0
   14.8844   15.0755    4.7253 C   0  0  0  0  0  0  0  0  0  0  0  0
   14.8728   15.4476    6.0837 C   0  0  0  0  0  0  0  0  0  0  0  0
   14.8922   16.7898    6.4750 C   0  0  0  0  0  0  0  0  0  0  0  0
   14.9313   17.7850    5.5065 C   0  0  0  0  0  0  0  0  0  0  0  0
   14.9575   17.4448    4.1581 C   0  0  0  0  0  0  0  0  0  0  0  0
   14.9403   16.0972    3.7740 C   0  0  0  0  0  0  0  0  0  0  0  0
   14.9500   19.4388    5.9772 Cl  0  0  0  0  0  0  0  0  0  0  0  0
  1 12  1  0  0  0
  2  3  2  0  0  0
  4  5  2  0  0  0
  4 10  1  0  0  0
  5  7  1  0  0  0
  6  1  2  0  0  0
  7 21  1  0  0  0
  8  9  1  0  0  0
 24 25  2  0  0  0
 26 27  2  0  0  0
 26 29  1  0  0  0
 28 23  2  0  0  0
 15 11  1  0  0  0
 15 20  1  0  0  0
 16 20  1  0  0  0
 16 17  1  0  0  0
 17 18  1  0  0  0
 18 19  1  0  0  0
 19 20  1  0  0  0
 21 23  1  0  0  0
 12 11  1  0  0  0
  1  2  1  0  0  0
  3  4  1  0  0  0
  5  6  1  0  0  0
  7  9  2  0  0  0
  8 10  2  0  0  0
 23 24  1  0  0  0
 25 26  1  0  0  0
 27 28  1  0  0  0
 11 13  2  0  0  0
 21 22  1  0  0  0
 12 14  1  0  0  0
M  END
> <minimizedAffinity>
-8.90494

$$$$
CHEMBL4167162


 29 32  0  0  0  0  0  0  0  0999 V2000
   14.5165   13.5704    3.6113 C   0  0  0  0  0  0  0  0  0  0  0  0
   13.2557   13.6457    3.0301 C   0  0  0  0  0  0  0  0  0  0  0  0
   12.5998   12.4763    2.6231 C   0  0  0  0  0  0  0  0  0  0  0  0
   13.1684   11.2165    2.7716 C   0  0  0  0  0  0  0  0  0  0  0  0
   14.4387   11.1143    3.3534 C   0  0  0  0  0  0  0  0  0  0  0  0
   15.0877   12.3087    3.7752 C   0  0  0  0  0  0  0  0  0  0  0  0
   14.9652    9.8021    3.4612 C   0  0  0  0  0  0  0  0  0  0  0  0
   13.0585    8.9649    2.5089 C   0  0  0  0  0  0  0  0  0  0  0  0
   14.2619    8.7358    3.0409 N   0  0  0  0  0  0  0  0  0  0  0  0
   12.4761   10.1569    2.3514 N   0  0  0  0  0  0  0  0  0  0  0  0
   15.2653   15.2468    5.3157 C   0  0  0  0  0  0  0  0  0  0  0  0
   15.1438   14.7685    4.0166 N   0  0  0  0  0  0  0  0  0  0  0  0
   14.9007   14.6646    6.3358 O   0  0  0  0  0  0  0  0  0  0  0  0
   15.5701   15.3274    3.2888 H   0  0  0  0  0  0  0  0  0  0  0  0
   15.8784   16.6475    5.3993 C   0  0  0  0  0  0  0  0  0  0  0  0
   13.8192   17.8592    5.9632 C   0  0  0  0  0  0  0  0  0  0  0  0
   13.2718   19.2463    5.6523 C   0  0  0  0  0  0  0  0  0  0  0  0
   14.3636   19.9502    4.8588 C   0  0  0  0  0  0  0  0  0  0  0  0
   15.5302   18.9798    4.8416 C   0  0  0  0  0  0  0  0  0  0  0  0
   14.8989   17.6679    4.9967 N   0  0  0  0  0  0  0  0  0  0  0  0
   16.2432    9.6070    4.0372 N   0  0  0  0  0  0  0  0  0  0  0  0
   16.9398   10.2627    3.7167 H   0  0  0  0  0  0  0  0  0  0  0  0
   16.8024    8.6001    4.8448 C   0  0  0  0  0  0  0  0  0  0  0  0
   17.5167    8.9980    5.9917 C   0  0  0  0  0  0  0  0  0  0  0  0
   18.0991    8.0625    6.8523 C   0  0  0  0  0  0  0  0  0  0  0  0
   17.9677    6.7066    6.5799 C   0  0  0  0  0  0  0  0  0  0  0  0
   17.2557    6.2860    5.4615 C   0  0  0  0  0  0  0  0  0  0  0  0
   16.6729    7.2297    4.6052 C   0  0  0  0  0  0  0  0  0  0  0  0
   18.6848    5.5482    7.6293 Cl  0  0  0  0  0  0  0  0  0  0  0  0
  1 12  1  0  0  0
  2  3  2  0  0  0
  4  5  2  0  0  0
  4 10  1  0  0  0
  5  7  1  0  0  0
  6  1  2  0  0  0
  7 21  1  0  0  0
  8  9  1  0  0  0
 24 25  2  0  0  0
 26 27  2  0  0  0
 26 29  1  0  0  0
 28 23  2  0  0  0
 15 11  1  0  0  0
 15 20  1  0  0  0
 16 20  1  0  0  0
 16 17  1  0  0  0
 17 18  1  0  0  0
 18 19  1  0  0  0
 19 20  1  0  0  0
 21 23  1  0  0  0
 12 11  1  0  0  0
  1  2  1  0  0  0
  3  4  1  0  0  0
  5  6  1  0  0  0
  7  9  2  0  0  0
  8 10  2  0  0  0
 23 24  1  0  0  0
 25 26  1  0  0  0
 27 28  1  0  0  0
 11 13  2  0  0  0
 21 22  1  0  0  0
 12 14  1  0  0  0
M  END
> <minimizedAffinity>
-8.84708

$$$$
CHEMBL4167162


 29 32  0  0  0  0  0  0  0  0999 V2000
   14.6684   14.9997    3.9421 C   0  0  0  0  0  0  0  0  0  0  0  0
   13.5749   15.4075    3.1865 C   0  0  0  0  0  0  0  0  0  0  0  0
   12.7280   14.4538    2.6064 C   0  0  0  0  0  0  0  0  0  0  0  0
   12.9405   13.0874    2.7501 C   0  0  0  0  0  0  0  0  0  0  0  0
   14.0365   12.6512    3.5057 C   0  0  0  0  0  0  0  0  0  0  0  0
   14.8805   13.6305    4.1011 C   0  0  0  0  0  0  0  0  0  0  0  0
   14.2026   11.2461    3.5993 C   0  0  0  0  0  0  0  0  0  0  0  0
   12.3286   10.9450    2.3183 C   0  0  0  0  0  0  0  0  0  0  0  0
   13.3377   10.4044    3.0062 N   0  0  0  0  0  0  0  0  0  0  0  0
   12.0877   12.2495    2.1591 N   0  0  0  0  0  0  0  0  0  0  0  0
   15.4465   16.4564    5.8258 C   0  0  0  0  0  0  0  0  0  0  0  0
   15.4952   15.9885    4.5182 N   0  0  0  0  0  0  0  0  0  0  0  0
   14.7124   16.0324    6.7168 O   0  0  0  0  0  0  0  0  0  0  0  0
   16.2140   16.3825    3.9250 H   0  0  0  0  0  0  0  0  0  0  0  0
   16.3894   17.6331    6.0923 C   0  0  0  0  0  0  0  0  0  0  0  0
   14.8856   19.3134    5.1220 C   0  0  0  0  0  0  0  0  0  0  0  0
   15.0820   20.6555    4.4287 C   0  0  0  0  0  0  0  0  0  0  0  0
   16.5809   20.9187    4.4605 C   0  0  0  0  0  0  0  0  0  0  0  0
   17.1681   19.7730    5.2640 C   0  0  0  0  0  0  0  0  0  0  0  0
   16.2050   18.6855    5.0818 N   0  0  0  0  0  0  0  0  0  0  0  0
   15.2843   10.7183    4.3439 N   0  0  0  0  0  0  0  0  0  0  0  0
   15.8466   11.4205    4.8006 H   0  0  0  0  0  0  0  0  0  0  0  0
   15.8473    9.4348    4.4645 C   0  0  0  0  0  0  0  0  0  0  0  0
   16.9761    9.2872    5.2940 C   0  0  0  0  0  0  0  0  0  0  0  0
   17.5939    8.0461    5.4751 C   0  0  0  0  0  0  0  0  0  0  0  0
   17.0833    6.9263    4.8306 C   0  0  0  0  0  0  0  0  0  0  0  0
   15.9612    7.0416    4.0167 C   0  0  0  0  0  0  0  0  0  0  0  0
   15.3462    8.2886    3.8423 C   0  0  0  0  0  0  0  0  0  0  0  0
   17.8391    5.3963    5.0425 Cl  0  0  0  0  0  0  0  0  0  0  0  0
  1 12  1  0  0  0
  2  3  2  0  0  0
  4  5  2  0  0  0
  4 10  1  0  0  0
  5  7  1  0  0  0
  6  1  2  0  0  0
  7 21  1  0  0  0
  8  9  1  0  0  0
 24 25  2  0  0  0
 26 27  2  0  0  0
 26 29  1  0  0  0
 28 23  2  0  0  0
 15 11  1  0  0  0
 15 20  1  0  0  0
 16 20  1  0  0  0
 16 17  1  0  0  0
 17 18  1  0  0  0
 18 19  1  0  0  0
 19 20  1  0  0  0
 21 23  1  0  0  0
 12 11  1  0  0  0
  1  2  1  0  0  0
  3  4  1  0  0  0
  5  6  1  0  0  0
  7  9  2  0  0  0
  8 10  2  0  0  0
 23 24  1  0  0  0
 25 26  1  0  0  0
 27 28  1  0  0  0
 11 13  2  0  0  0
 21 22  1  0  0  0
 12 14  1  0  0  0
M  END
> <minimizedAffinity>
-8.79158

$$$$
CHEMBL4167162


 29 32  0  0  0  0  0  0  0  0999 V2000
   17.7430   15.5393    5.2317 C   0  0  0  0  0  0  0  0  0  0  0  0
   19.1202   15.3516    5.1976 C   0  0  0  0  0  0  0  0  0  0  0  0
   19.6498   14.0578    5.1022 C   0  0  0  0  0  0  0  0  0  0  0  0
   18.8421   12.9277    5.0453 C   0  0  0  0  0  0  0  0  0  0  0  0
   17.4511   13.0904    5.0794 C   0  0  0  0  0  0  0  0  0  0  0  0
   16.9264   14.4109    5.1623 C   0  0  0  0  0  0  0  0  0  0  0  0
   16.6879   11.8963    5.0326 C   0  0  0  0  0  0  0  0  0  0  0  0
   18.6198   10.6730    4.9118 C   0  0  0  0  0  0  0  0  0  0  0  0
   17.2848   10.6947    4.9423 N   0  0  0  0  0  0  0  0  0  0  0  0
   19.4305   11.7338    4.9608 N   0  0  0  0  0  0  0  0  0  0  0  0
   16.6200   17.4398    6.4162 C   0  0  0  0  0  0  0  0  0  0  0  0
   17.2451   16.8574    5.3201 N   0  0  0  0  0  0  0  0  0  0  0  0
   16.4592   16.9160    7.5173 O   0  0  0  0  0  0  0  0  0  0  0  0
   17.3765   17.4485    4.5096 H   0  0  0  0  0  0  0  0  0  0  0  0
   16.0723   18.8422    6.1371 C   0  0  0  0  0  0  0  0  0  0  0  0
   16.4860   20.6857    4.5698 C   0  0  0  0  0  0  0  0  0  0  0  0
   17.6013   21.7067    4.3855 C   0  0  0  0  0  0  0  0  0  0  0  0
   18.5825   21.4526    5.5211 C   0  0  0  0  0  0  0  0  0  0  0  0
   17.9369   20.3723    6.3692 C   0  0  0  0  0  0  0  0  0  0  0  0
   17.0704   19.6582    5.4297 N   0  0  0  0  0  0  0  0  0  0  0  0
   15.2748   11.9685    5.0621 N   0  0  0  0  0  0  0  0  0  0  0  0
   14.8839   11.9398    5.9918 H   0  0  0  0  0  0  0  0  0  0  0  0
   14.2774   11.9145    4.0715 C   0  0  0  0  0  0  0  0  0  0  0  0
   13.7754   13.1340    3.5767 C   0  0  0  0  0  0  0  0  0  0  0  0
   12.7882   13.1714    2.5874 C   0  0  0  0  0  0  0  0  0  0  0  0
   12.2912   11.9815    2.0704 C   0  0  0  0  0  0  0  0  0  0  0  0
   12.7794   10.7634    2.5315 C   0  0  0  0  0  0  0  0  0  0  0  0
   13.7707   10.7344    3.5215 C   0  0  0  0  0  0  0  0  0  0  0  0
   11.0730   12.0167    0.8571 Cl  0  0  0  0  0  0  0  0  0  0  0  0
  1 12  1  0  0  0
  2  3  2  0  0  0
  4  5  2  0  0  0
  4 10  1  0  0  0
  5  7  1  0  0  0
  6  1  2  0  0  0
  7 21  1  0  0  0
  8  9  1  0  0  0
 24 25  2  0  0  0
 26 27  2  0  0  0
 26 29  1  0  0  0
 28 23  2  0  0  0
 15 11  1  0  0  0
 15 20  1  0  0  0
 16 20  1  0  0  0
 16 17  1  0  0  0
 17 18  1  0  0  0
 18 19  1  0  0  0
 19 20  1  0  0  0
 21 23  1  0  0  0
 12 11  1  0  0  0
  1  2  1  0  0  0
  3  4  1  0  0  0
  5  6  1  0  0  0
  7  9  2  0  0  0
  8 10  2  0  0  0
 23 24  1  0  0  0
 25 26  1  0  0  0
 27 28  1  0  0  0
 11 13  2  0  0  0
 21 22  1  0  0  0
 12 14  1  0  0  0
M  END
> <minimizedAffinity>
-8.77665

$$$$
CHEMBL4167162


 29 32  0  0  0  0  0  0  0  0999 V2000
   19.2942   12.7504    5.8337 C   0  0  0  0  0  0  0  0  0  0  0  0
   20.4093   13.5634    5.6650 C   0  0  0  0  0  0  0  0  0  0  0  0
   20.2477   14.9240    5.3719 C   0  0  0  0  0  0  0  0  0  0  0  0
   18.9944   15.5094    5.2326 C   0  0  0  0  0  0  0  0  0  0  0  0
   17.8552   14.7108    5.3967 C   0  0  0  0  0  0  0  0  0  0  0  0
   18.0336   13.3335    5.7081 C   0  0  0  0  0  0  0  0  0  0  0  0
   16.6102   15.3680    5.2267 C   0  0  0  0  0  0  0  0  0  0  0  0
   17.7104   17.3343    4.8186 C   0  0  0  0  0  0  0  0  0  0  0  0
   16.5521   16.6814    4.9443 N   0  0  0  0  0  0  0  0  0  0  0  0
   18.9327   16.8107    4.9476 N   0  0  0  0  0  0  0  0  0  0  0  0
   19.1061   10.2963    5.3665 C   0  0  0  0  0  0  0  0  0  0  0  0
   19.4951   11.3861    6.1362 N   0  0  0  0  0  0  0  0  0  0  0  0
   18.5790   10.3486    4.2566 O   0  0  0  0  0  0  0  0  0  0  0  0
   19.9946   11.1785    6.9913 H   0  0  0  0  0  0  0  0  0  0  0  0
   19.3494    8.9462    6.0466 C   0  0  0  0  0  0  0  0  0  0  0  0
   19.9471    6.7734    5.0729 C   0  0  0  0  0  0  0  0  0  0  0  0
   19.1607    5.5588    4.5967 C   0  0  0  0  0  0  0  0  0  0  0  0
   17.7017    5.8700    4.8990 C   0  0  0  0  0  0  0  0  0  0  0  0
   17.7228    7.1984    5.6324 C   0  0  0  0  0  0  0  0  0  0  0  0
   18.9519    7.8403    5.1625 N   0  0  0  0  0  0  0  0  0  0  0  0
   15.4078   14.6363    5.3748 N   0  0  0  0  0  0  0  0  0  0  0  0
   15.0362   14.6474    6.3127 H   0  0  0  0  0  0  0  0  0  0  0  0
   14.6919   13.7623    4.5368 C   0  0  0  0  0  0  0  0  0  0  0  0
   14.6631   12.3969    4.8816 C   0  0  0  0  0  0  0  0  0  0  0  0
   13.9701   11.4611    4.1077 C   0  0  0  0  0  0  0  0  0  0  0  0
   13.2853   11.8820    2.9746 C   0  0  0  0  0  0  0  0  0  0  0  0
   13.2859   13.2268    2.6191 C   0  0  0  0  0  0  0  0  0  0  0  0
   13.9808   14.1589    3.4014 C   0  0  0  0  0  0  0  0  0  0  0  0
   12.4343   10.7382    2.0131 Cl  0  0  0  0  0  0  0  0  0  0  0  0
  1 12  1  0  0  0
  2  3  2  0  0  0
  4  5  2  0  0  0
  4 10  1  0  0  0
  5  7  1  0  0  0
  6  1  2  0  0  0
  7 21  1  0  0  0
  8  9  1  0  0  0
 24 25  2  0  0  0
 26 27  2  0  0  0
 26 29  1  0  0  0
 28 23  2  0  0  0
 15 11  1  0  0  0
 15 20  1  0  0  0
 16 20  1  0  0  0
 16 17  1  0  0  0
 17 18  1  0  0  0
 18 19  1  0  0  0
 19 20  1  0  0  0
 21 23  1  0  0  0
 12 11  1  0  0  0
  1  2  1  0  0  0
  3  4  1  0  0  0
  5  6  1  0  0  0
  7  9  2  0  0  0
  8 10  2  0  0  0
 23 24  1  0  0  0
 25 26  1  0  0  0
 27 28  1  0  0  0
 11 13  2  0  0  0
 21 22  1  0  0  0
 12 14  1  0  0  0
M  END
> <minimizedAffinity>
-8.68050

$$$$
CHEMBL4649816


 25 28  0  0  0  0  0  0  0  0999 V2000
   16.2471   14.7001    2.4201 C   0  0  0  0  0  0  0  0  0  0  0  0
   14.8955   15.3718    2.6652 C   0  0  0  0  0  0  0  0  0  0  0  0
   14.0505   14.3714    3.4609 C   0  0  0  0  0  0  0  0  0  0  0  0
   16.1514   13.3658    3.1123 C   0  0  0  0  0  0  0  0  0  0  0  0
   14.8955   13.2236    3.6624 N   0  0  0  0  0  0  0  0  0  0  0  0
   17.0476   12.5344    3.1383 O   0  0  0  0  0  0  0  0  0  0  0  0
   14.9969   16.6970    3.2825 N   0  0  0  0  0  0  0  0  0  0  0  0
   14.8141   17.5001    2.7023 H   0  0  0  0  0  0  0  0  0  0  0  0
   15.2955   16.8790    4.6130 C   0  0  0  0  0  0  0  0  0  0  0  0
   16.7621   16.7120    6.4152 C   0  0  0  0  0  0  0  0  0  0  0  0
   14.7440   17.5374    6.8615 C   0  0  0  0  0  0  0  0  0  0  0  0
   14.3961   17.3970    5.5287 C   0  0  0  0  0  0  0  0  0  0  0  0
   12.7374   18.2351    6.7250 C   0  0  0  0  0  0  0  0  0  0  0  0
   16.5033   16.5423    5.1021 N   0  0  0  0  0  0  0  0  0  0  0  0
   15.9455   17.1975    7.3561 N   0  0  0  0  0  0  0  0  0  0  0  0
   13.1073   17.8505    5.4658 N   0  0  0  0  0  0  0  0  0  0  0  0
   13.7075   18.0564    7.5922 N   0  0  0  0  0  0  0  0  0  0  0  0
   12.5289   17.8942    4.6404 H   0  0  0  0  0  0  0  0  0  0  0  0
   14.5075   12.1127    4.5083 C   0  0  0  0  0  0  0  0  0  0  0  0
   14.1268   10.8956    3.6994 C   0  0  0  0  0  0  0  0  0  0  0  0
   14.9279    9.7445    3.7384 C   0  0  0  0  0  0  0  0  0  0  0  0
   14.5636    8.6007    3.0264 C   0  0  0  0  0  0  0  0  0  0  0  0
   13.3864    8.5894    2.2809 C   0  0  0  0  0  0  0  0  0  0  0  0
   12.5766    9.7231    2.2418 C   0  0  0  0  0  0  0  0  0  0  0  0
   12.9460   10.8719    2.9439 C   0  0  0  0  0  0  0  0  0  0  0  0
  1  2  1  0  0  0
  1  4  1  0  0  0
  2  3  1  0  0  0
  2  7  1  0  0  0
  3  5  1  0  0  0
 19  5  1  0  0  0
 19 20  1  0  0  0
 21 22  2  0  0  0
 23 24  2  0  0  0
 25 20  2  0  0  0
 10 14  2  0  0  0
 11 15  2  0  0  0
 11 17  1  0  0  0
 12 16  1  0  0  0
 12  9  2  0  0  0
  5  4  1  0  0  0
  7  9  1  0  0  0
 16 13  1  0  0  0
  4  6  2  0  0  0
 20 21  1  0  0  0
 22 23  1  0  0  0
 24 25  1  0  0  0
  9 14  1  0  0  0
 10 15  1  0  0  0
 11 12  1  0  0  0
 13 17  2  0  0  0
  7  8  1  0  0  0
 16 18  1  0  0  0
M  END
> <minimizedAffinity>
-8.83298

$$$$
CHEMBL4649816


 25 28  0  0  0  0  0  0  0  0999 V2000
   15.9332   15.0234    2.3462 C   0  0  0  0  0  0  0  0  0  0  0  0
   14.5569   15.5810    2.7108 C   0  0  0  0  0  0  0  0  0  0  0  0
   13.8983   14.5471    3.6303 C   0  0  0  0  0  0  0  0  0  0  0  0
   16.0373   13.7202    3.0943 C   0  0  0  0  0  0  0  0  0  0  0  0
   14.8648   13.4913    3.7821 N   0  0  0  0  0  0  0  0  0  0  0  0
   17.0062   12.9755    3.0543 O   0  0  0  0  0  0  0  0  0  0  0  0
   14.5957   16.9377    3.2633 N   0  0  0  0  0  0  0  0  0  0  0  0
   14.6476   17.7071    2.6150 H   0  0  0  0  0  0  0  0  0  0  0  0
   14.5315   17.1952    4.6131 C   0  0  0  0  0  0  0  0  0  0  0  0
   13.3864   17.9645    6.4903 C   0  0  0  0  0  0  0  0  0  0  0  0
   15.4736   17.2693    6.8268 C   0  0  0  0  0  0  0  0  0  0  0  0
   15.5872   16.9704    5.4798 C   0  0  0  0  0  0  0  0  0  0  0  0
   17.4474   16.5108    6.5811 C   0  0  0  0  0  0  0  0  0  0  0  0
   13.4146   17.7019    5.1673 N   0  0  0  0  0  0  0  0  0  0  0  0
   14.3637   17.7807    7.3841 N   0  0  0  0  0  0  0  0  0  0  0  0
   16.8593   16.4859    5.3466 N   0  0  0  0  0  0  0  0  0  0  0  0
   16.6331   16.9812    7.4978 N   0  0  0  0  0  0  0  0  0  0  0  0
   17.2909   16.1672    4.4923 H   0  0  0  0  0  0  0  0  0  0  0  0
   14.6744   12.3913    4.7060 C   0  0  0  0  0  0  0  0  0  0  0  0
   14.3396   11.1052    3.9886 C   0  0  0  0  0  0  0  0  0  0  0  0
   13.1634   11.0066    3.2304 C   0  0  0  0  0  0  0  0  0  0  0  0
   12.8648    9.8362    2.5310 C   0  0  0  0  0  0  0  0  0  0  0  0
   13.7464    8.7578    2.5685 C   0  0  0  0  0  0  0  0  0  0  0  0
   14.9233    8.8465    3.3100 C   0  0  0  0  0  0  0  0  0  0  0  0
   15.2173   10.0123    4.0198 C   0  0  0  0  0  0  0  0  0  0  0  0
  1  2  1  0  0  0
  1  4  1  0  0  0
  2  3  1  0  0  0
  2  7  1  0  0  0
  3  5  1  0  0  0
 19  5  1  0  0  0
 19 20  1  0  0  0
 21 22  2  0  0  0
 23 24  2  0  0  0
 25 20  2  0  0  0
 10 14  2  0  0  0
 11 15  2  0  0  0
 11 17  1  0  0  0
 12 16  1  0  0  0
 12  9  2  0  0  0
  5  4  1  0  0  0
  7  9  1  0  0  0
 16 13  1  0  0  0
  4  6  2  0  0  0
 20 21  1  0  0  0
 22 23  1  0  0  0
 24 25  1  0  0  0
  9 14  1  0  0  0
 10 15  1  0  0  0
 11 12  1  0  0  0
 13 17  2  0  0  0
  7  8  1  0  0  0
 16 18  1  0  0  0
M  END
> <minimizedAffinity>
-8.81790

$$$$
CHEMBL4649816


 25 28  0  0  0  0  0  0  0  0999 V2000
   14.9552   14.1235    2.2840 C   0  0  0  0  0  0  0  0  0  0  0  0
   14.9023   13.2375    3.5291 C   0  0  0  0  0  0  0  0  0  0  0  0
   15.4736   14.0713    4.6809 C   0  0  0  0  0  0  0  0  0  0  0  0
   15.5101   15.4389    2.7639 C   0  0  0  0  0  0  0  0  0  0  0  0
   15.8014   15.3506    4.1084 N   0  0  0  0  0  0  0  0  0  0  0  0
   15.7013   16.4114    2.0478 O   0  0  0  0  0  0  0  0  0  0  0  0
   13.5771   12.6721    3.7968 N   0  0  0  0  0  0  0  0  0  0  0  0
   13.1810   12.8174    4.7117 H   0  0  0  0  0  0  0  0  0  0  0  0
   12.8522   11.9892    2.8478 C   0  0  0  0  0  0  0  0  0  0  0  0
   11.1752   11.9052    1.2330 C   0  0  0  0  0  0  0  0  0  0  0  0
   12.2738   10.0070    1.6109 C   0  0  0  0  0  0  0  0  0  0  0  0
   13.0488   10.6493    2.5616 C   0  0  0  0  0  0  0  0  0  0  0  0
   13.6022    8.5196    2.3555 C   0  0  0  0  0  0  0  0  0  0  0  0
   11.8847   12.6044    2.1428 N   0  0  0  0  0  0  0  0  0  0  0  0
   11.3032   10.6144    0.9089 N   0  0  0  0  0  0  0  0  0  0  0  0
   13.8920    9.6768    3.0241 N   0  0  0  0  0  0  0  0  0  0  0  0
   12.6257    8.6879    1.4936 N   0  0  0  0  0  0  0  0  0  0  0  0
   14.6017    9.7886    3.7324 H   0  0  0  0  0  0  0  0  0  0  0  0
   16.2312   16.4751    4.9151 C   0  0  0  0  0  0  0  0  0  0  0  0
   15.0754   17.1212    5.6414 C   0  0  0  0  0  0  0  0  0  0  0  0
   14.2523   18.0430    4.9773 C   0  0  0  0  0  0  0  0  0  0  0  0
   13.1577   18.6152    5.6272 C   0  0  0  0  0  0  0  0  0  0  0  0
   12.8642   18.2601    6.9423 C   0  0  0  0  0  0  0  0  0  0  0  0
   13.6682   17.3379    7.6100 C   0  0  0  0  0  0  0  0  0  0  0  0
   14.7705   16.7738    6.9651 C   0  0  0  0  0  0  0  0  0  0  0  0
  1  2  1  0  0  0
  1  4  1  0  0  0
  2  3  1  0  0  0
  2  7  1  0  0  0
  3  5  1  0  0  0
 19  5  1  0  0  0
 19 20  1  0  0  0
 21 22  2  0  0  0
 23 24  2  0  0  0
 25 20  2  0  0  0
 10 14  2  0  0  0
 11 15  2  0  0  0
 11 17  1  0  0  0
 12 16  1  0  0  0
 12  9  2  0  0  0
  5  4  1  0  0  0
  7  9  1  0  0  0
 16 13  1  0  0  0
  4  6  2  0  0  0
 20 21  1  0  0  0
 22 23  1  0  0  0
 24 25  1  0  0  0
  9 14  1  0  0  0
 10 15  1  0  0  0
 11 12  1  0  0  0
 13 17  2  0  0  0
  7  8  1  0  0  0
 16 18  1  0  0  0
M  END
> <minimizedAffinity>
-8.43160

$$$$
CHEMBL4649816


 25 28  0  0  0  0  0  0  0  0999 V2000
   15.4201   14.0737    2.4012 C   0  0  0  0  0  0  0  0  0  0  0  0
   15.7534   13.1883    3.6025 C   0  0  0  0  0  0  0  0  0  0  0  0
   16.2497   14.1251    4.7089 C   0  0  0  0  0  0  0  0  0  0  0  0
   15.6924   15.4805    2.8654 C   0  0  0  0  0  0  0  0  0  0  0  0
   16.1727   15.4523    4.1571 N   0  0  0  0  0  0  0  0  0  0  0  0
   15.5408   16.4781    2.1747 O   0  0  0  0  0  0  0  0  0  0  0  0
   14.6563   12.3062    4.0097 N   0  0  0  0  0  0  0  0  0  0  0  0
   13.8540   12.7277    4.4497 H   0  0  0  0  0  0  0  0  0  0  0  0
   14.6686   10.9489    3.7859 C   0  0  0  0  0  0  0  0  0  0  0  0
   15.5853    8.8343    4.1254 C   0  0  0  0  0  0  0  0  0  0  0  0
   13.8462    8.9427    2.7409 C   0  0  0  0  0  0  0  0  0  0  0  0
   13.7729   10.3099    2.9462 C   0  0  0  0  0  0  0  0  0  0  0  0
   12.2159    9.6069    1.5439 C   0  0  0  0  0  0  0  0  0  0  0  0
   15.5831   10.1594    4.3791 N   0  0  0  0  0  0  0  0  0  0  0  0
   14.7603    8.1510    3.3253 N   0  0  0  0  0  0  0  0  0  0  0  0
   12.7214   10.7128    2.1697 N   0  0  0  0  0  0  0  0  0  0  0  0
   12.8771    8.5197    1.8694 N   0  0  0  0  0  0  0  0  0  0  0  0
   12.3776   11.6562    2.0724 H   0  0  0  0  0  0  0  0  0  0  0  0
   16.4155   16.6391    4.9525 C   0  0  0  0  0  0  0  0  0  0  0  0
   15.1557   17.1364    5.6205 C   0  0  0  0  0  0  0  0  0  0  0  0
   14.8286   16.7083    6.9158 C   0  0  0  0  0  0  0  0  0  0  0  0
   13.6879   17.1930    7.5576 C   0  0  0  0  0  0  0  0  0  0  0  0
   12.8706   18.1230    6.9181 C   0  0  0  0  0  0  0  0  0  0  0  0
   13.1899   18.5640    5.6351 C   0  0  0  0  0  0  0  0  0  0  0  0
   14.3241   18.0710    4.9873 C   0  0  0  0  0  0  0  0  0  0  0  0
  1  2  1  0  0  0
  1  4  1  0  0  0
  2  3  1  0  0  0
  2  7  1  0  0  0
  3  5  1  0  0  0
 19  5  1  0  0  0
 19 20  1  0  0  0
 21 22  2  0  0  0
 23 24  2  0  0  0
 25 20  2  0  0  0
 10 14  2  0  0  0
 11 15  2  0  0  0
 11 17  1  0  0  0
 12 16  1  0  0  0
 12  9  2  0  0  0
  5  4  1  0  0  0
  7  9  1  0  0  0
 16 13  1  0  0  0
  4  6  2  0  0  0
 20 21  1  0  0  0
 22 23  1  0  0  0
 24 25  1  0  0  0
  9 14  1  0  0  0
 10 15  1  0  0  0
 11 12  1  0  0  0
 13 17  2  0  0  0
  7  8  1  0  0  0
 16 18  1  0  0  0
M  END
> <minimizedAffinity>
-8.21995

$$$$
CHEMBL4649816


 25 28  0  0  0  0  0  0  0  0999 V2000
   17.9049   11.8296    4.2097 C   0  0  0  0  0  0  0  0  0  0  0  0
   17.4617   13.1079    3.4972 C   0  0  0  0  0  0  0  0  0  0  0  0
   15.9298   13.0827    3.4714 C   0  0  0  0  0  0  0  0  0  0  0  0
   16.6259   11.1388    4.6040 C   0  0  0  0  0  0  0  0  0  0  0  0
   15.5501   11.8717    4.1505 N   0  0  0  0  0  0  0  0  0  0  0  0
   16.5712   10.0729    5.2007 O   0  0  0  0  0  0  0  0  0  0  0  0
   18.0327   14.3312    4.0674 N   0  0  0  0  0  0  0  0  0  0  0  0
   17.8235   15.2042    3.6100 H   0  0  0  0  0  0  0  0  0  0  0  0
   18.8047   14.3335    5.2060 C   0  0  0  0  0  0  0  0  0  0  0  0
   19.0173   14.3158    7.5258 C   0  0  0  0  0  0  0  0  0  0  0  0
   20.9132   14.4122    6.3642 C   0  0  0  0  0  0  0  0  0  0  0  0
   20.1875   14.3903    5.1853 C   0  0  0  0  0  0  0  0  0  0  0  0
   22.3624   14.4983    4.8073 C   0  0  0  0  0  0  0  0  0  0  0  0
   18.2369   14.2913    6.4256 N   0  0  0  0  0  0  0  0  0  0  0  0
   20.3517   14.3765    7.5837 N   0  0  0  0  0  0  0  0  0  0  0  0
   21.1370   14.4459    4.2023 N   0  0  0  0  0  0  0  0  0  0  0  0
   22.2591   14.4805    6.1164 N   0  0  0  0  0  0  0  0  0  0  0  0
   20.9679   14.4489    3.2078 H   0  0  0  0  0  0  0  0  0  0  0  0
   14.1711   11.5589    4.4674 C   0  0  0  0  0  0  0  0  0  0  0  0
   13.4965   10.7958    3.3523 C   0  0  0  0  0  0  0  0  0  0  0  0
   12.4653   11.3937    2.6123 C   0  0  0  0  0  0  0  0  0  0  0  0
   11.8629   10.7120    1.5538 C   0  0  0  0  0  0  0  0  0  0  0  0
   12.2954    9.4319    1.2131 C   0  0  0  0  0  0  0  0  0  0  0  0
   13.3257    8.8307    1.9340 C   0  0  0  0  0  0  0  0  0  0  0  0
   13.9211    9.5067    3.0006 C   0  0  0  0  0  0  0  0  0  0  0  0
  1  2  1  0  0  0
  1  4  1  0  0  0
  2  3  1  0  0  0
  2  7  1  0  0  0
  3  5  1  0  0  0
 19  5  1  0  0  0
 19 20  1  0  0  0
 21 22  2  0  0  0
 23 24  2  0  0  0
 25 20  2  0  0  0
 10 14  2  0  0  0
 11 15  2  0  0  0
 11 17  1  0  0  0
 12 16  1  0  0  0
 12  9  2  0  0  0
  5  4  1  0  0  0
  7  9  1  0  0  0
 16 13  1  0  0  0
  4  6  2  0  0  0
 20 21  1  0  0  0
 22 23  1  0  0  0
 24 25  1  0  0  0
  9 14  1  0  0  0
 10 15  1  0  0  0
 11 12  1  0  0  0
 13 17  2  0  0  0
  7  8  1  0  0  0
 16 18  1  0  0  0
M  END
> <minimizedAffinity>
-8.10346

$$$$
CHEMBL4649816


 25 28  0  0  0  0  0  0  0  0999 V2000
   16.3606   15.7766    2.7385 C   0  0  0  0  0  0  0  0  0  0  0  0
   15.8771   16.2471    4.1107 C   0  0  0  0  0  0  0  0  0  0  0  0
   14.3895   15.8888    4.1941 C   0  0  0  0  0  0  0  0  0  0  0  0
   15.1582   15.1315    2.1008 C   0  0  0  0  0  0  0  0  0  0  0  0
   14.0768   15.2379    2.9490 N   0  0  0  0  0  0  0  0  0  0  0  0
   15.1525   14.6299    0.9857 O   0  0  0  0  0  0  0  0  0  0  0  0
   16.6804   15.7404    5.2267 N   0  0  0  0  0  0  0  0  0  0  0  0
   16.7061   16.2871    6.0725 H   0  0  0  0  0  0  0  0  0  0  0  0
   17.3629   14.5472    5.1727 C   0  0  0  0  0  0  0  0  0  0  0  0
   17.3996   12.2181    5.1480 C   0  0  0  0  0  0  0  0  0  0  0  0
   19.3786   13.2344    5.0896 C   0  0  0  0  0  0  0  0  0  0  0  0
   18.7436   14.4643    5.1200 C   0  0  0  0  0  0  0  0  0  0  0  0
   20.9423   14.6785    5.0544 C   0  0  0  0  0  0  0  0  0  0  0  0
   16.7041   13.3736    5.1806 N   0  0  0  0  0  0  0  0  0  0  0  0
   18.7266   12.0604    5.1034 N   0  0  0  0  0  0  0  0  0  0  0  0
   19.7652   15.3734    5.0964 N   0  0  0  0  0  0  0  0  0  0  0  0
   20.7405   13.3807    5.0503 N   0  0  0  0  0  0  0  0  0  0  0  0
   19.6717   16.3778    5.1086 H   0  0  0  0  0  0  0  0  0  0  0  0
   12.7939   14.6111    2.7013 C   0  0  0  0  0  0  0  0  0  0  0  0
   12.8719   13.1069    2.8105 C   0  0  0  0  0  0  0  0  0  0  0  0
   12.0723   12.2981    1.9891 C   0  0  0  0  0  0  0  0  0  0  0  0
   12.1661   10.9070    2.0539 C   0  0  0  0  0  0  0  0  0  0  0  0
   13.0715   10.3095    2.9286 C   0  0  0  0  0  0  0  0  0  0  0  0
   13.8787   11.1020    3.7428 C   0  0  0  0  0  0  0  0  0  0  0  0
   13.7774   12.4933    3.6876 C   0  0  0  0  0  0  0  0  0  0  0  0
  1  2  1  0  0  0
  1  4  1  0  0  0
  2  3  1  0  0  0
  2  7  1  0  0  0
  3  5  1  0  0  0
 19  5  1  0  0  0
 19 20  1  0  0  0
 21 22  2  0  0  0
 23 24  2  0  0  0
 25 20  2  0  0  0
 10 14  2  0  0  0
 11 15  2  0  0  0
 11 17  1  0  0  0
 12 16  1  0  0  0
 12  9  2  0  0  0
  5  4  1  0  0  0
  7  9  1  0  0  0
 16 13  1  0  0  0
  4  6  2  0  0  0
 20 21  1  0  0  0
 22 23  1  0  0  0
 24 25  1  0  0  0
  9 14  1  0  0  0
 10 15  1  0  0  0
 11 12  1  0  0  0
 13 17  2  0  0  0
  7  8  1  0  0  0
 16 18  1  0  0  0
M  END
> <minimizedAffinity>
-7.98628

$$$$
CHEMBL4649816


 25 28  0  0  0  0  0  0  0  0999 V2000
   16.7056   15.2282    3.4805 C   0  0  0  0  0  0  0  0  0  0  0  0
   16.1284   15.4082    4.8850 C   0  0  0  0  0  0  0  0  0  0  0  0
   14.6168   15.1871    4.7657 C   0  0  0  0  0  0  0  0  0  0  0  0
   15.5251   14.8712    2.6159 C   0  0  0  0  0  0  0  0  0  0  0  0
   14.3776   14.8804    3.3798 N   0  0  0  0  0  0  0  0  0  0  0  0
   15.5895   14.6485    1.4153 O   0  0  0  0  0  0  0  0  0  0  0  0
   16.7783   14.5778    5.9026 N   0  0  0  0  0  0  0  0  0  0  0  0
   16.2662   14.3857    6.7487 H   0  0  0  0  0  0  0  0  0  0  0  0
   18.0298   14.0326    5.7321 C   0  0  0  0  0  0  0  0  0  0  0  0
   20.3507   14.2279    5.6890 C   0  0  0  0  0  0  0  0  0  0  0  0
   19.5229   12.2187    5.2089 C   0  0  0  0  0  0  0  0  0  0  0  0
   18.2404   12.7082    5.3894 C   0  0  0  0  0  0  0  0  0  0  0  0
   18.2307   10.5689    4.8345 C   0  0  0  0  0  0  0  0  0  0  0  0
   19.1367   14.7833    5.8828 N   0  0  0  0  0  0  0  0  0  0  0  0
   20.6305   12.9646    5.3520 N   0  0  0  0  0  0  0  0  0  0  0  0
   17.4304   11.6336    5.1446 N   0  0  0  0  0  0  0  0  0  0  0  0
   19.5032   10.8926    4.8643 N   0  0  0  0  0  0  0  0  0  0  0  0
   16.4224   11.6240    5.1837 H   0  0  0  0  0  0  0  0  0  0  0  0
   13.0808   14.4575    2.8907 C   0  0  0  0  0  0  0  0  0  0  0  0
   12.9863   12.9548    2.7728 C   0  0  0  0  0  0  0  0  0  0  0  0
   13.8104   12.1332    3.5564 C   0  0  0  0  0  0  0  0  0  0  0  0
   13.7029   10.7435    3.4845 C   0  0  0  0  0  0  0  0  0  0  0  0
   12.7595   10.1602    2.6409 C   0  0  0  0  0  0  0  0  0  0  0  0
   11.9280   10.9655    1.8646 C   0  0  0  0  0  0  0  0  0  0  0  0
   12.0427   12.3555    1.9267 C   0  0  0  0  0  0  0  0  0  0  0  0
  1  2  1  0  0  0
  1  4  1  0  0  0
  2  3  1  0  0  0
  2  7  1  0  0  0
  3  5  1  0  0  0
 19  5  1  0  0  0
 19 20  1  0  0  0
 21 22  2  0  0  0
 23 24  2  0  0  0
 25 20  2  0  0  0
 10 14  2  0  0  0
 11 15  2  0  0  0
 11 17  1  0  0  0
 12 16  1  0  0  0
 12  9  2  0  0  0
  5  4  1  0  0  0
  7  9  1  0  0  0
 16 13  1  0  0  0
  4  6  2  0  0  0
 20 21  1  0  0  0
 22 23  1  0  0  0
 24 25  1  0  0  0
  9 14  1  0  0  0
 10 15  1  0  0  0
 11 12  1  0  0  0
 13 17  2  0  0  0
  7  8  1  0  0  0
 16 18  1  0  0  0
M  END
> <minimizedAffinity>
-7.91056

$$$$
CHEMBL4649816


 25 28  0  0  0  0  0  0  0  0999 V2000
   18.0828   11.6689    4.4744 C   0  0  0  0  0  0  0  0  0  0  0  0
   17.7407   13.0329    3.8741 C   0  0  0  0  0  0  0  0  0  0  0  0
   16.2120   13.1015    3.7930 C   0  0  0  0  0  0  0  0  0  0  0  0
   16.7524   11.0212    4.7556 C   0  0  0  0  0  0  0  0  0  0  0  0
   15.7383   11.8565    4.3382 N   0  0  0  0  0  0  0  0  0  0  0  0
   16.6143    9.9088    5.2441 O   0  0  0  0  0  0  0  0  0  0  0  0
   18.3559   14.1607    4.5793 N   0  0  0  0  0  0  0  0  0  0  0  0
   17.8160   15.0060    4.6735 H   0  0  0  0  0  0  0  0  0  0  0  0
   19.6117   14.0957    5.1371 C   0  0  0  0  0  0  0  0  0  0  0  0
   21.9296   14.2532    4.9665 C   0  0  0  0  0  0  0  0  0  0  0  0
   21.1255   13.6940    6.9649 C   0  0  0  0  0  0  0  0  0  0  0  0
   19.8373   13.7660    6.4624 C   0  0  0  0  0  0  0  0  0  0  0  0
   19.8533   13.2020    8.5993 C   0  0  0  0  0  0  0  0  0  0  0  0
   20.7092   14.3446    4.3989 N   0  0  0  0  0  0  0  0  0  0  0  0
   22.2243   13.9354    6.2313 N   0  0  0  0  0  0  0  0  0  0  0  0
   19.0403   13.4473    7.5273 N   0  0  0  0  0  0  0  0  0  0  0  0
   21.1218   13.3425    8.2893 N   0  0  0  0  0  0  0  0  0  0  0  0
   18.0326   13.3996    7.5262 H   0  0  0  0  0  0  0  0  0  0  0  0
   14.3323   11.5977    4.5755 C   0  0  0  0  0  0  0  0  0  0  0  0
   13.6952   10.8535    3.4262 C   0  0  0  0  0  0  0  0  0  0  0  0
   14.1058    9.5480    3.1177 C   0  0  0  0  0  0  0  0  0  0  0  0
   13.4955    8.8368    2.0833 C   0  0  0  0  0  0  0  0  0  0  0  0
   12.4573    9.4167    1.3569 C   0  0  0  0  0  0  0  0  0  0  0  0
   12.0332   10.7093    1.6599 C   0  0  0  0  0  0  0  0  0  0  0  0
   12.6509   11.4262    2.6865 C   0  0  0  0  0  0  0  0  0  0  0  0
  1  2  1  0  0  0
  1  4  1  0  0  0
  2  3  1  0  0  0
  2  7  1  0  0  0
  3  5  1  0  0  0
 19  5  1  0  0  0
 19 20  1  0  0  0
 21 22  2  0  0  0
 23 24  2  0  0  0
 25 20  2  0  0  0
 10 14  2  0  0  0
 11 15  2  0  0  0
 11 17  1  0  0  0
 12 16  1  0  0  0
 12  9  2  0  0  0
  5  4  1  0  0  0
  7  9  1  0  0  0
 16 13  1  0  0  0
  4  6  2  0  0  0
 20 21  1  0  0  0
 22 23  1  0  0  0
 24 25  1  0  0  0
  9 14  1  0  0  0
 10 15  1  0  0  0
 11 12  1  0  0  0
 13 17  2  0  0  0
  7  8  1  0  0  0
 16 18  1  0  0  0
M  END
> <minimizedAffinity>
-7.76873

$$$$
CHEMBL4649816


 25 28  0  0  0  0  0  0  0  0999 V2000
   16.9031   15.3421    6.2078 C   0  0  0  0  0  0  0  0  0  0  0  0
   17.6907   15.3260    4.8972 C   0  0  0  0  0  0  0  0  0  0  0  0
   16.6688   15.0986    3.7783 C   0  0  0  0  0  0  0  0  0  0  0  0
   15.4636   15.1676    5.8005 C   0  0  0  0  0  0  0  0  0  0  0  0
   15.3891   15.0168    4.4323 N   0  0  0  0  0  0  0  0  0  0  0  0
   14.5236   15.1299    6.5816 O   0  0  0  0  0  0  0  0  0  0  0  0
   18.5410   16.5037    4.7036 N   0  0  0  0  0  0  0  0  0  0  0  0
   19.2241   16.4728    3.9637 H   0  0  0  0  0  0  0  0  0  0  0  0
   18.4190   17.6444    5.4629 C   0  0  0  0  0  0  0  0  0  0  0  0
   19.1358   19.0278    7.1947 C   0  0  0  0  0  0  0  0  0  0  0  0
   17.3222   19.6932    6.0897 C   0  0  0  0  0  0  0  0  0  0  0  0
   17.4090   18.5732    5.2804 C   0  0  0  0  0  0  0  0  0  0  0  0
   15.6819   19.8422    4.7411 C   0  0  0  0  0  0  0  0  0  0  0  0
   19.2914   17.9123    6.4521 N   0  0  0  0  0  0  0  0  0  0  0  0
   18.1863   19.9624    7.0820 N   0  0  0  0  0  0  0  0  0  0  0  0
   16.3485   18.6908    4.4248 N   0  0  0  0  0  0  0  0  0  0  0  0
   16.2474   20.4706    5.7462 N   0  0  0  0  0  0  0  0  0  0  0  0
   16.0985   18.0454    3.6908 H   0  0  0  0  0  0  0  0  0  0  0  0
   14.1430   14.9552    3.6952 C   0  0  0  0  0  0  0  0  0  0  0  0
   13.7209   13.5314    3.4211 C   0  0  0  0  0  0  0  0  0  0  0  0
   14.3296   12.4709    4.1089 C   0  0  0  0  0  0  0  0  0  0  0  0
   13.9189   11.1546    3.8923 C   0  0  0  0  0  0  0  0  0  0  0  0
   12.8845   10.8855    2.9982 C   0  0  0  0  0  0  0  0  0  0  0  0
   12.2648   11.9310    2.3160 C   0  0  0  0  0  0  0  0  0  0  0  0
   12.6827   13.2470    2.5227 C   0  0  0  0  0  0  0  0  0  0  0  0
  1  2  1  0  0  0
  1  4  1  0  0  0
  2  3  1  0  0  0
  2  7  1  0  0  0
  3  5  1  0  0  0
 19  5  1  0  0  0
 19 20  1  0  0  0
 21 22  2  0  0  0
 23 24  2  0  0  0
 25 20  2  0  0  0
 10 14  2  0  0  0
 11 15  2  0  0  0
 11 17  1  0  0  0
 12 16  1  0  0  0
 12  9  2  0  0  0
  5  4  1  0  0  0
  7  9  1  0  0  0
 16 13  1  0  0  0
  4  6  2  0  0  0
 20 21  1  0  0  0
 22 23  1  0  0  0
 24 25  1  0  0  0
  9 14  1  0  0  0
 10 15  1  0  0  0
 11 12  1  0  0  0
 13 17  2  0  0  0
  7  8  1  0  0  0
 16 18  1  0  0  0
M  END
> <minimizedAffinity>
-7.74876

$$$$
CHEMBL3393349


 25 28  0  0  0  0  0  0  0  0999 V2000
   13.1357   12.8690    2.4524 C   0  0  0  0  0  0  0  0  0  0  0  0
   13.5003   11.5122    2.7613 C   0  0  0  0  0  0  0  0  0  0  0  0
   12.4460   10.7163    2.3404 C   0  0  0  0  0  0  0  0  0  0  0  0
   13.5207    8.8454    2.8319 C   0  0  0  0  0  0  0  0  0  0  0  0
   14.6122   10.8430    3.3229 C   0  0  0  0  0  0  0  0  0  0  0  0
   11.8488   12.8398    1.9430 C   0  0  0  0  0  0  0  0  0  0  0  0
   12.3832    9.3778    2.3555 N   0  0  0  0  0  0  0  0  0  0  0  0
   14.6080    9.4861    3.3028 N   0  0  0  0  0  0  0  0  0  0  0  0
   11.4449   11.5301    1.8892 N   0  0  0  0  0  0  0  0  0  0  0  0
   10.5619   11.1888    1.5383 H   0  0  0  0  0  0  0  0  0  0  0  0
   15.3902   12.2370    5.1262 C   0  0  0  0  0  0  0  0  0  0  0  0
   16.5115   13.2538    5.4353 C   0  0  0  0  0  0  0  0  0  0  0  0
   18.0931   11.9046    4.1749 C   0  0  0  0  0  0  0  0  0  0  0  0
   16.9913   10.8576    3.8770 C   0  0  0  0  0  0  0  0  0  0  0  0
   18.8921   13.7000    5.6016 C   0  0  0  0  0  0  0  0  0  0  0  0
   15.6864   11.5225    3.8765 N   0  0  0  0  0  0  0  0  0  0  0  0
   17.8680   12.6678    5.4265 N   0  0  0  0  0  0  0  0  0  0  0  0
   14.3798   16.2110    3.6490 C   0  0  0  0  0  0  0  0  0  0  0  0
   13.6797   15.0016    3.5816 C   0  0  0  0  0  0  0  0  0  0  0  0
   13.9214   14.0921    2.5421 C   0  0  0  0  0  0  0  0  0  0  0  0
   14.9072   14.3909    1.5939 C   0  0  0  0  0  0  0  0  0  0  0  0
   15.6227   15.5892    1.6700 C   0  0  0  0  0  0  0  0  0  0  0  0
   15.3544   16.5021    2.6910 C   0  0  0  0  0  0  0  0  0  0  0  0
   14.0592   17.1699    4.6660 C   0  0  0  0  0  0  0  0  0  0  0  0
   13.7750   17.9476    5.4783 N   0  0  0  0  0  0  0  0  0  0  0  0
 18 24  1  0  0  0
 19 20  2  0  0  0
 20  1  1  0  0  0
 21 22  2  0  0  0
 23 18  2  0  0  0
  1  2  1  0  0  0
  2  3  2  0  0  0
  3  9  1  0  0  0
  4  7  2  0  0  0
  5  8  2  0  0  0
  5 16  1  0  0  0
 11 16  1  0  0  0
 11 12  1  0  0  0
 12 17  1  0  0  0
 13 17  1  0  0  0
 13 14  1  0  0  0
 14 16  1  0  0  0
 15 17  1  0  0  0
  9  6  1  0  0  0
 18 19  1  0  0  0
 20 21  1  0  0  0
 22 23  1  0  0  0
  3  7  1  0  0  0
  4  8  1  0  0  0
  5  2  1  0  0  0
  6  1  2  0  0  0
 24 25  3  0  0  0
  9 10  1  0  0  0
M  END
> <minimizedAffinity>
-8.55207

$$$$
CHEMBL3393349


 25 28  0  0  0  0  0  0  0  0999 V2000
   15.3640    9.4312    3.4594 C   0  0  0  0  0  0  0  0  0  0  0  0
   14.3270   10.3632    3.1054 C   0  0  0  0  0  0  0  0  0  0  0  0
   13.3466    9.6312    2.4533 C   0  0  0  0  0  0  0  0  0  0  0  0
   11.9912   11.3743    2.3059 C   0  0  0  0  0  0  0  0  0  0  0  0
   14.0740   11.7433    3.2801 C   0  0  0  0  0  0  0  0  0  0  0  0
   15.0065    8.2026    2.9309 C   0  0  0  0  0  0  0  0  0  0  0  0
   12.1593   10.0733    2.0167 N   0  0  0  0  0  0  0  0  0  0  0  0
   12.8590   12.2149    2.9017 N   0  0  0  0  0  0  0  0  0  0  0  0
   13.7867    8.3442    2.3196 N   0  0  0  0  0  0  0  0  0  0  0  0
   13.2553    7.6155    1.8657 H   0  0  0  0  0  0  0  0  0  0  0  0
   15.4346   13.7001    2.9334 C   0  0  0  0  0  0  0  0  0  0  0  0
   16.7317   14.3478    3.4670 C   0  0  0  0  0  0  0  0  0  0  0  0
   16.1597   13.6517    5.7250 C   0  0  0  0  0  0  0  0  0  0  0  0
   14.8398   13.0208    5.2164 C   0  0  0  0  0  0  0  0  0  0  0  0
   17.9448   15.2578    5.3628 C   0  0  0  0  0  0  0  0  0  0  0  0
   15.0125   12.6080    3.8218 N   0  0  0  0  0  0  0  0  0  0  0  0
   16.6513   14.7680    4.8814 N   0  0  0  0  0  0  0  0  0  0  0  0
   17.8841    8.9934    6.2175 C   0  0  0  0  0  0  0  0  0  0  0  0
   16.7815    8.7864    5.3815 C   0  0  0  0  0  0  0  0  0  0  0  0
   16.5530    9.6220    4.2787 C   0  0  0  0  0  0  0  0  0  0  0  0
   17.4698   10.6423    3.9984 C   0  0  0  0  0  0  0  0  0  0  0  0
   18.5834   10.8390    4.8200 C   0  0  0  0  0  0  0  0  0  0  0  0
   18.7865   10.0214    5.9326 C   0  0  0  0  0  0  0  0  0  0  0  0
   18.0557    8.1876    7.3912 C   0  0  0  0  0  0  0  0  0  0  0  0
   18.1680    7.5370    8.3449 N   0  0  0  0  0  0  0  0  0  0  0  0
 18 24  1  0  0  0
 19 20  2  0  0  0
 20  1  1  0  0  0
 21 22  2  0  0  0
 23 18  2  0  0  0
  1  2  1  0  0  0
  2  3  2  0  0  0
  3  9  1  0  0  0
  4  7  2  0  0  0
  5  8  2  0  0  0
  5 16  1  0  0  0
 11 16  1  0  0  0
 11 12  1  0  0  0
 12 17  1  0  0  0
 13 17  1  0  0  0
 13 14  1  0  0  0
 14 16  1  0  0  0
 15 17  1  0  0  0
  9  6  1  0  0  0
 18 19  1  0  0  0
 20 21  1  0  0  0
 22 23  1  0  0  0
  3  7  1  0  0  0
  4  8  1  0  0  0
  5  2  1  0  0  0
  6  1  2  0  0  0
 24 25  3  0  0  0
  9 10  1  0  0  0
M  END
> <minimizedAffinity>
-8.02678

$$$$
CHEMBL3393349


 25 28  0  0  0  0  0  0  0  0999 V2000
   13.1527   11.1867    2.7426 C   0  0  0  0  0  0  0  0  0  0  0  0
   14.2356   10.4406    3.3258 C   0  0  0  0  0  0  0  0  0  0  0  0
   14.0102    9.1094    3.0107 C   0  0  0  0  0  0  0  0  0  0  0  0
   15.9254    8.4605    3.9094 C   0  0  0  0  0  0  0  0  0  0  0  0
   15.4075   10.7256    4.0638 C   0  0  0  0  0  0  0  0  0  0  0  0
   12.2811   10.2694    2.1808 C   0  0  0  0  0  0  0  0  0  0  0  0
   14.8065    8.0657    3.2797 N   0  0  0  0  0  0  0  0  0  0  0  0
   16.2656    9.7023    4.3051 N   0  0  0  0  0  0  0  0  0  0  0  0
   12.8124    9.0174    2.3588 N   0  0  0  0  0  0  0  0  0  0  0  0
   12.4178    8.1468    2.0338 H   0  0  0  0  0  0  0  0  0  0  0  0
   14.8835   12.4405    5.6715 C   0  0  0  0  0  0  0  0  0  0  0  0
   15.0108   13.9695    5.8531 C   0  0  0  0  0  0  0  0  0  0  0  0
   17.2025   13.9198    4.8022 C   0  0  0  0  0  0  0  0  0  0  0  0
   17.1087   12.3827    4.6361 C   0  0  0  0  0  0  0  0  0  0  0  0
   16.4647   15.9093    5.9831 C   0  0  0  0  0  0  0  0  0  0  0  0
   15.6996   11.9973    4.5324 N   0  0  0  0  0  0  0  0  0  0  0  0
   16.4067   14.4467    5.9374 N   0  0  0  0  0  0  0  0  0  0  0  0
   13.9101   14.8603    2.4606 C   0  0  0  0  0  0  0  0  0  0  0  0
   14.0704   13.4711    2.5003 C   0  0  0  0  0  0  0  0  0  0  0  0
   12.9594   12.6264    2.6367 C   0  0  0  0  0  0  0  0  0  0  0  0
   11.6793   13.1911    2.6883 C   0  0  0  0  0  0  0  0  0  0  0  0
   11.5143   14.5778    2.6284 C   0  0  0  0  0  0  0  0  0  0  0  0
   12.6280   15.4122    2.5229 C   0  0  0  0  0  0  0  0  0  0  0  0
   15.0611   15.7142    2.4106 C   0  0  0  0  0  0  0  0  0  0  0  0
   15.9773   16.4250    2.3801 N   0  0  0  0  0  0  0  0  0  0  0  0
 18 24  1  0  0  0
 19 20  2  0  0  0
 20  1  1  0  0  0
 21 22  2  0  0  0
 23 18  2  0  0  0
  1  2  1  0  0  0
  2  3  2  0  0  0
  3  9  1  0  0  0
  4  7  2  0  0  0
  5  8  2  0  0  0
  5 16  1  0  0  0
 11 16  1  0  0  0
 11 12  1  0  0  0
 12 17  1  0  0  0
 13 17  1  0  0  0
 13 14  1  0  0  0
 14 16  1  0  0  0
 15 17  1  0  0  0
  9  6  1  0  0  0
 18 19  1  0  0  0
 20 21  1  0  0  0
 22 23  1  0  0  0
  3  7  1  0  0  0
  4  8  1  0  0  0
  5  2  1  0  0  0
  6  1  2  0  0  0
 24 25  3  0  0  0
  9 10  1  0  0  0
M  END
> <minimizedAffinity>
-7.64411

$$$$
CHEMBL3393349


 25 28  0  0  0  0  0  0  0  0999 V2000
   16.0181   13.1402    4.4123 C   0  0  0  0  0  0  0  0  0  0  0  0
   17.2442   12.4923    4.7947 C   0  0  0  0  0  0  0  0  0  0  0  0
   17.1225   11.1647    4.4140 C   0  0  0  0  0  0  0  0  0  0  0  0
   19.2009   10.6915    5.0084 C   0  0  0  0  0  0  0  0  0  0  0  0
   18.4682   12.8680    5.3947 C   0  0  0  0  0  0  0  0  0  0  0  0
   15.1819   12.1624    3.9013 C   0  0  0  0  0  0  0  0  0  0  0  0
   18.0556   10.2068    4.5007 N   0  0  0  0  0  0  0  0  0  0  0  0
   19.4562   11.9391    5.4475 N   0  0  0  0  0  0  0  0  0  0  0  0
   15.8640   10.9724    3.9167 N   0  0  0  0  0  0  0  0  0  0  0  0
   15.5247   10.0823    3.5820 H   0  0  0  0  0  0  0  0  0  0  0  0
   19.2014   14.1617    7.2892 C   0  0  0  0  0  0  0  0  0  0  0  0
   19.0318   15.5732    7.8938 C   0  0  0  0  0  0  0  0  0  0  0  0
   19.0907   16.5434    5.6654 C   0  0  0  0  0  0  0  0  0  0  0  0
   19.2903   15.1407    5.0396 C   0  0  0  0  0  0  0  0  0  0  0  0
   19.2931   17.9712    7.6193 C   0  0  0  0  0  0  0  0  0  0  0  0
   18.6829   14.1352    5.9143 N   0  0  0  0  0  0  0  0  0  0  0  0
   19.5938   16.6531    7.0563 N   0  0  0  0  0  0  0  0  0  0  0  0
   14.7762   16.4660    5.6555 C   0  0  0  0  0  0  0  0  0  0  0  0
   15.1863   15.1288    5.6260 C   0  0  0  0  0  0  0  0  0  0  0  0
   15.6584   14.5514    4.4385 C   0  0  0  0  0  0  0  0  0  0  0  0
   15.7560   15.3452    3.2894 C   0  0  0  0  0  0  0  0  0  0  0  0
   15.3660   16.6871    3.3208 C   0  0  0  0  0  0  0  0  0  0  0  0
   14.8692   17.2452    4.4995 C   0  0  0  0  0  0  0  0  0  0  0  0
   14.2126   17.0173    6.8534 C   0  0  0  0  0  0  0  0  0  0  0  0
   13.7761   17.4820    7.8224 N   0  0  0  0  0  0  0  0  0  0  0  0
 18 24  1  0  0  0
 19 20  2  0  0  0
 20  1  1  0  0  0
 21 22  2  0  0  0
 23 18  2  0  0  0
  1  2  1  0  0  0
  2  3  2  0  0  0
  3  9  1  0  0  0
  4  7  2  0  0  0
  5  8  2  0  0  0
  5 16  1  0  0  0
 11 16  1  0  0  0
 11 12  1  0  0  0
 12 17  1  0  0  0
 13 17  1  0  0  0
 13 14  1  0  0  0
 14 16  1  0  0  0
 15 17  1  0  0  0
  9  6  1  0  0  0
 18 19  1  0  0  0
 20 21  1  0  0  0
 22 23  1  0  0  0
  3  7  1  0  0  0
  4  8  1  0  0  0
  5  2  1  0  0  0
  6  1  2  0  0  0
 24 25  3  0  0  0
  9 10  1  0  0  0
M  END
> <minimizedAffinity>
-7.56959

$$$$
CHEMBL3393349


 25 28  0  0  0  0  0  0  0  0999 V2000
   17.2050   12.4317    4.1606 C   0  0  0  0  0  0  0  0  0  0  0  0
   18.1299   13.0378    5.0807 C   0  0  0  0  0  0  0  0  0  0  0  0
   19.0221   12.0440    5.4529 C   0  0  0  0  0  0  0  0  0  0  0  0
   20.2595   13.4475    6.6345 C   0  0  0  0  0  0  0  0  0  0  0  0
   18.3483   14.3217    5.6313 C   0  0  0  0  0  0  0  0  0  0  0  0
   17.5246   11.0866    4.0873 C   0  0  0  0  0  0  0  0  0  0  0  0
   20.1029   12.1748    6.2344 N   0  0  0  0  0  0  0  0  0  0  0  0
   19.4645   14.5050    6.3811 N   0  0  0  0  0  0  0  0  0  0  0  0
   18.6219   10.8689    4.8811 N   0  0  0  0  0  0  0  0  0  0  0  0
   19.1035    9.9911    5.0107 H   0  0  0  0  0  0  0  0  0  0  0  0
   16.2347   15.3189    6.2127 C   0  0  0  0  0  0  0  0  0  0  0  0
   15.1889   16.2963    5.6315 C   0  0  0  0  0  0  0  0  0  0  0  0
   16.9721   17.6755    4.7213 C   0  0  0  0  0  0  0  0  0  0  0  0
   18.0384   16.7247    5.3197 C   0  0  0  0  0  0  0  0  0  0  0  0
   14.6976   18.5228    4.7977 C   0  0  0  0  0  0  0  0  0  0  0  0
   17.4738   15.3774    5.4246 N   0  0  0  0  0  0  0  0  0  0  0  0
   15.6891   17.6767    5.4653 N   0  0  0  0  0  0  0  0  0  0  0  0
   13.8602   13.0279    2.5464 C   0  0  0  0  0  0  0  0  0  0  0  0
   14.8639   12.4980    3.3644 C   0  0  0  0  0  0  0  0  0  0  0  0
   16.1575   13.0392    3.3513 C   0  0  0  0  0  0  0  0  0  0  0  0
   16.4212   14.1486    2.5390 C   0  0  0  0  0  0  0  0  0  0  0  0
   15.4153   14.6931    1.7357 C   0  0  0  0  0  0  0  0  0  0  0  0
   14.1387   14.1292    1.7328 C   0  0  0  0  0  0  0  0  0  0  0  0
   12.5675   12.4086    2.5042 C   0  0  0  0  0  0  0  0  0  0  0  0
   11.5236   11.9066    2.4433 N   0  0  0  0  0  0  0  0  0  0  0  0
 18 24  1  0  0  0
 19 20  2  0  0  0
 20  1  1  0  0  0
 21 22  2  0  0  0
 23 18  2  0  0  0
  1  2  1  0  0  0
  2  3  2  0  0  0
  3  9  1  0  0  0
  4  7  2  0  0  0
  5  8  2  0  0  0
  5 16  1  0  0  0
 11 16  1  0  0  0
 11 12  1  0  0  0
 12 17  1  0  0  0
 13 17  1  0  0  0
 13 14  1  0  0  0
 14 16  1  0  0  0
 15 17  1  0  0  0
  9  6  1  0  0  0
 18 19  1  0  0  0
 20 21  1  0  0  0
 22 23  1  0  0  0
  3  7  1  0  0  0
  4  8  1  0  0  0
  5  2  1  0  0  0
  6  1  2  0  0  0
 24 25  3  0  0  0
  9 10  1  0  0  0
M  END
> <minimizedAffinity>
-7.46595

$$$$
CHEMBL3393349


 25 28  0  0  0  0  0  0  0  0999 V2000
   17.6815   11.9578    4.5372 C   0  0  0  0  0  0  0  0  0  0  0  0
   17.2750   10.5792    4.5958 C   0  0  0  0  0  0  0  0  0  0  0  0
   18.3556    9.8719    5.1001 C   0  0  0  0  0  0  0  0  0  0  0  0
   17.2197    7.9740    5.1682 C   0  0  0  0  0  0  0  0  0  0  0  0
   16.1083    9.8326    4.3115 C   0  0  0  0  0  0  0  0  0  0  0  0
   19.0101   12.0083    4.9228 C   0  0  0  0  0  0  0  0  0  0  0  0
   18.4025    8.5668    5.4006 N   0  0  0  0  0  0  0  0  0  0  0  0
   16.0999    8.5199    4.6557 N   0  0  0  0  0  0  0  0  0  0  0  0
   19.4033   10.7363    5.2528 N   0  0  0  0  0  0  0  0  0  0  0  0
   20.3116   10.4593    5.5957 H   0  0  0  0  0  0  0  0  0  0  0  0
   14.1505    9.4527    2.9614 C   0  0  0  0  0  0  0  0  0  0  0  0
   13.1903   10.2232    2.0282 C   0  0  0  0  0  0  0  0  0  0  0  0
   13.2911   12.1524    3.5042 C   0  0  0  0  0  0  0  0  0  0  0  0
   14.2317   11.3886    4.4690 C   0  0  0  0  0  0  0  0  0  0  0  0
   11.6058   12.0429    1.7592 C   0  0  0  0  0  0  0  0  0  0  0  0
   14.9943   10.3959    3.7086 N   0  0  0  0  0  0  0  0  0  0  0  0
   12.4012   11.2676    2.7138 N   0  0  0  0  0  0  0  0  0  0  0  0
   15.5718   15.0389    4.9897 C   0  0  0  0  0  0  0  0  0  0  0  0
   16.3739   13.9267    5.2671 C   0  0  0  0  0  0  0  0  0  0  0  0
   16.9039   13.1496    4.2271 C   0  0  0  0  0  0  0  0  0  0  0  0
   16.6556   13.5282    2.9022 C   0  0  0  0  0  0  0  0  0  0  0  0
   15.8713   14.6506    2.6217 C   0  0  0  0  0  0  0  0  0  0  0  0
   15.3232   15.4007    3.6632 C   0  0  0  0  0  0  0  0  0  0  0  0
   14.9642   15.7708    6.0628 C   0  0  0  0  0  0  0  0  0  0  0  0
   14.4934   16.3800    6.9305 N   0  0  0  0  0  0  0  0  0  0  0  0
 18 24  1  0  0  0
 19 20  2  0  0  0
 20  1  1  0  0  0
 21 22  2  0  0  0
 23 18  2  0  0  0
  1  2  1  0  0  0
  2  3  2  0  0  0
  3  9  1  0  0  0
  4  7  2  0  0  0
  5  8  2  0  0  0
  5 16  1  0  0  0
 11 16  1  0  0  0
 11 12  1  0  0  0
 12 17  1  0  0  0
 13 17  1  0  0  0
 13 14  1  0  0  0
 14 16  1  0  0  0
 15 17  1  0  0  0
  9  6  1  0  0  0
 18 19  1  0  0  0
 20 21  1  0  0  0
 22 23  1  0  0  0
  3  7  1  0  0  0
  4  8  1  0  0  0
  5  2  1  0  0  0
  6  1  2  0  0  0
 24 25  3  0  0  0
  9 10  1  0  0  0
M  END
> <minimizedAffinity>
-7.45414

$$$$
CHEMBL3393349


 25 28  0  0  0  0  0  0  0  0999 V2000
   18.0144   12.6447    5.1246 C   0  0  0  0  0  0  0  0  0  0  0  0
   18.9605   13.5676    5.6925 C   0  0  0  0  0  0  0  0  0  0  0  0
   20.1029   12.8347    5.9758 C   0  0  0  0  0  0  0  0  0  0  0  0
   21.2313   14.6323    6.6021 C   0  0  0  0  0  0  0  0  0  0  0  0
   19.0098   14.9511    5.9804 C   0  0  0  0  0  0  0  0  0  0  0  0
   18.5920   11.3874    5.1717 C   0  0  0  0  0  0  0  0  0  0  0  0
   21.2703   13.2992    6.4419 N   0  0  0  0  0  0  0  0  0  0  0  0
   20.1931   15.4665    6.3998 N   0  0  0  0  0  0  0  0  0  0  0  0
   19.8524   11.5205    5.6962 N   0  0  0  0  0  0  0  0  0  0  0  0
   20.5272   10.7816    5.8304 H   0  0  0  0  0  0  0  0  0  0  0  0
   17.4095   16.3632    7.0961 C   0  0  0  0  0  0  0  0  0  0  0  0
   15.9859   16.9276    6.8918 C   0  0  0  0  0  0  0  0  0  0  0  0
   16.4431   17.2456    4.5253 C   0  0  0  0  0  0  0  0  0  0  0  0
   17.8843   16.7098    4.7125 C   0  0  0  0  0  0  0  0  0  0  0  0
   14.4790   18.2590    5.5314 C   0  0  0  0  0  0  0  0  0  0  0  0
   17.9059   15.7784    5.8425 N   0  0  0  0  0  0  0  0  0  0  0  0
   15.8704   17.8573    5.7490 N   0  0  0  0  0  0  0  0  0  0  0  0
   15.3835   13.9683    2.7847 C   0  0  0  0  0  0  0  0  0  0  0  0
   16.6274   13.6651    3.3486 C   0  0  0  0  0  0  0  0  0  0  0  0
   16.7146   12.8938    4.5165 C   0  0  0  0  0  0  0  0  0  0  0  0
   15.5392   12.3923    5.0884 C   0  0  0  0  0  0  0  0  0  0  0  0
   14.2961   12.6767    4.5160 C   0  0  0  0  0  0  0  0  0  0  0  0
   14.2170   13.4701    3.3706 C   0  0  0  0  0  0  0  0  0  0  0  0
   15.3049   14.8314    1.6422 C   0  0  0  0  0  0  0  0  0  0  0  0
   15.2485   15.5503    0.7337 N   0  0  0  0  0  0  0  0  0  0  0  0
 18 24  1  0  0  0
 19 20  2  0  0  0
 20  1  1  0  0  0
 21 22  2  0  0  0
 23 18  2  0  0  0
  1  2  1  0  0  0
  2  3  2  0  0  0
  3  9  1  0  0  0
  4  7  2  0  0  0
  5  8  2  0  0  0
  5 16  1  0  0  0
 11 16  1  0  0  0
 11 12  1  0  0  0
 12 17  1  0  0  0
 13 17  1  0  0  0
 13 14  1  0  0  0
 14 16  1  0  0  0
 15 17  1  0  0  0
  9  6  1  0  0  0
 18 19  1  0  0  0
 20 21  1  0  0  0
 22 23  1  0  0  0
  3  7  1  0  0  0
  4  8  1  0  0  0
  5  2  1  0  0  0
  6  1  2  0  0  0
 24 25  3  0  0  0
  9 10  1  0  0  0
M  END
> <minimizedAffinity>
-7.33096

$$$$
CHEMBL3393349


 25 28  0  0  0  0  0  0  0  0999 V2000
   18.0981   15.3146    5.1100 C   0  0  0  0  0  0  0  0  0  0  0  0
   18.2942   13.8955    4.9795 C   0  0  0  0  0  0  0  0  0  0  0  0
   19.6026   13.6427    5.3620 C   0  0  0  0  0  0  0  0  0  0  0  0
   19.3470   11.4523    5.1788 C   0  0  0  0  0  0  0  0  0  0  0  0
   17.5158   12.7742    4.6107 C   0  0  0  0  0  0  0  0  0  0  0  0
   19.3149   15.8626    5.4783 C   0  0  0  0  0  0  0  0  0  0  0  0
   20.1989   12.4479    5.4743 N   0  0  0  0  0  0  0  0  0  0  0  0
   18.0680   11.5442    4.7660 N   0  0  0  0  0  0  0  0  0  0  0  0
   20.2151   14.8372    5.6190 N   0  0  0  0  0  0  0  0  0  0  0  0
   21.1797   14.9212    5.9052 H   0  0  0  0  0  0  0  0  0  0  0  0
   16.1451   13.3644    2.7205 C   0  0  0  0  0  0  0  0  0  0  0  0
   14.7072   13.8318    2.4029 C   0  0  0  0  0  0  0  0  0  0  0  0
   13.8362   12.3428    4.1160 C   0  0  0  0  0  0  0  0  0  0  0  0
   15.2664   11.8385    4.4313 C   0  0  0  0  0  0  0  0  0  0  0  0
   12.3254   13.3767    2.5205 C   0  0  0  0  0  0  0  0  0  0  0  0
   16.2284   12.8953    4.1108 N   0  0  0  0  0  0  0  0  0  0  0  0
   13.6689   12.8312    2.7256 N   0  0  0  0  0  0  0  0  0  0  0  0
   14.8768   17.0421    5.9977 C   0  0  0  0  0  0  0  0  0  0  0  0
   16.0806   16.3382    6.1106 C   0  0  0  0  0  0  0  0  0  0  0  0
   16.8820   16.1062    4.9836 C   0  0  0  0  0  0  0  0  0  0  0  0
   16.4826   16.6279    3.7473 C   0  0  0  0  0  0  0  0  0  0  0  0
   15.2905   17.3490    3.6350 C   0  0  0  0  0  0  0  0  0  0  0  0
   14.4843   17.5493    4.7564 C   0  0  0  0  0  0  0  0  0  0  0  0
   14.0249   17.1946    7.1411 C   0  0  0  0  0  0  0  0  0  0  0  0
   13.3391   17.3446    8.0645 N   0  0  0  0  0  0  0  0  0  0  0  0
 18 24  1  0  0  0
 19 20  2  0  0  0
 20  1  1  0  0  0
 21 22  2  0  0  0
 23 18  2  0  0  0
  1  2  1  0  0  0
  2  3  2  0  0  0
  3  9  1  0  0  0
  4  7  2  0  0  0
  5  8  2  0  0  0
  5 16  1  0  0  0
 11 16  1  0  0  0
 11 12  1  0  0  0
 12 17  1  0  0  0
 13 17  1  0  0  0
 13 14  1  0  0  0
 14 16  1  0  0  0
 15 17  1  0  0  0
  9  6  1  0  0  0
 18 19  1  0  0  0
 20 21  1  0  0  0
 22 23  1  0  0  0
  3  7  1  0  0  0
  4  8  1  0  0  0
  5  2  1  0  0  0
  6  1  2  0  0  0
 24 25  3  0  0  0
  9 10  1  0  0  0
M  END
> <minimizedAffinity>
-7.29658

$$$$
CHEMBL3393349


 25 28  0  0  0  0  0  0  0  0999 V2000
   17.4010   13.2832    4.3439 C   0  0  0  0  0  0  0  0  0  0  0  0
   18.4222   13.5611    5.3181 C   0  0  0  0  0  0  0  0  0  0  0  0
   19.0814   12.3635    5.5490 C   0  0  0  0  0  0  0  0  0  0  0  0
   20.5728   13.3161    6.8777 C   0  0  0  0  0  0  0  0  0  0  0  0
   18.8995   14.6910    6.0216 C   0  0  0  0  0  0  0  0  0  0  0  0
   17.4316   11.9212    4.0977 C   0  0  0  0  0  0  0  0  0  0  0  0
   20.1566   12.1652    6.3239 N   0  0  0  0  0  0  0  0  0  0  0  0
   20.0208   14.5402    6.7711 N   0  0  0  0  0  0  0  0  0  0  0  0
   18.4496   11.3800    4.8409 N   0  0  0  0  0  0  0  0  0  0  0  0
   18.7344   10.4114    4.8521 H   0  0  0  0  0  0  0  0  0  0  0  0
   17.7183   16.4006    7.2391 C   0  0  0  0  0  0  0  0  0  0  0  0
   16.7221   17.5549    6.9903 C   0  0  0  0  0  0  0  0  0  0  0  0
   17.8723   18.1124    4.9223 C   0  0  0  0  0  0  0  0  0  0  0  0
   18.8996   16.9791    5.1661 C   0  0  0  0  0  0  0  0  0  0  0  0
   16.2466   19.6517    5.8628 C   0  0  0  0  0  0  0  0  0  0  0  0
   18.2687   15.9241    5.9624 N   0  0  0  0  0  0  0  0  0  0  0  0
   17.2723   18.6516    6.1668 N   0  0  0  0  0  0  0  0  0  0  0  0
   14.8561   15.9754    3.6926 C   0  0  0  0  0  0  0  0  0  0  0  0
   15.7607   15.1348    4.3501 C   0  0  0  0  0  0  0  0  0  0  0  0
   16.5137   14.1938    3.6333 C   0  0  0  0  0  0  0  0  0  0  0  0
   16.3806   14.1362    2.2408 C   0  0  0  0  0  0  0  0  0  0  0  0
   15.4924   14.9885    1.5786 C   0  0  0  0  0  0  0  0  0  0  0  0
   14.7251   15.9014    2.3035 C   0  0  0  0  0  0  0  0  0  0  0  0
   14.0288   16.8703    4.4484 C   0  0  0  0  0  0  0  0  0  0  0  0
   13.3622   17.6126    5.0401 N   0  0  0  0  0  0  0  0  0  0  0  0
 18 24  1  0  0  0
 19 20  2  0  0  0
 20  1  1  0  0  0
 21 22  2  0  0  0
 23 18  2  0  0  0
  1  2  1  0  0  0
  2  3  2  0  0  0
  3  9  1  0  0  0
  4  7  2  0  0  0
  5  8  2  0  0  0
  5 16  1  0  0  0
 11 16  1  0  0  0
 11 12  1  0  0  0
 12 17  1  0  0  0
 13 17  1  0  0  0
 13 14  1  0  0  0
 14 16  1  0  0  0
 15 17  1  0  0  0
  9  6  1  0  0  0
 18 19  1  0  0  0
 20 21  1  0  0  0
 22 23  1  0  0  0
  3  7  1  0  0  0
  4  8  1  0  0  0
  5  2  1  0  0  0
  6  1  2  0  0  0
 24 25  3  0  0  0
  9 10  1  0  0  0
M  END
> <minimizedAffinity>
-7.25911

$$$$
CHEMBL3715062


 26 28  0  0  0  0  0  0  0  0999 V2000
   17.8400   11.0683    5.2385 N   0  0  0  0  0  0  0  0  0  0  0  0
   17.3399    8.7256    4.9355 N   0  0  0  0  0  0  0  0  0  0  0  0
   15.3342    8.3400    3.6944 N   0  0  0  0  0  0  0  0  0  0  0  0
   18.0651    9.7517    5.4037 C   0  0  0  0  0  0  0  0  0  0  0  0
   16.2565    9.1609    4.2781 C   0  0  0  0  0  0  0  0  0  0  0  0
   15.8773   10.4761    4.0580 C   0  0  0  0  0  0  0  0  0  0  0  0
   16.7615   11.4791    4.5159 C   0  0  0  0  0  0  0  0  0  0  0  0
   14.5986   10.4199    3.4097 C   0  0  0  0  0  0  0  0  0  0  0  0
   14.3247    9.0806    3.1257 C   0  0  0  0  0  0  0  0  0  0  0  0
   13.1955    8.6746    2.4066 C   0  0  0  0  0  0  0  0  0  0  0  0
   12.3267    9.6736    1.9484 C   0  0  0  0  0  0  0  0  0  0  0  0
   12.5429   11.0227    2.2471 C   0  0  0  0  0  0  0  0  0  0  0  0
   13.6434   11.3888    3.0313 C   0  0  0  0  0  0  0  0  0  0  0  0
   15.4001    7.3337    3.6972 H   0  0  0  0  0  0  0  0  0  0  0  0
   11.7587   13.3421    2.0688 N   0  0  0  0  0  0  0  0  0  0  0  0
   11.5989   12.0353    1.6952 C   0  0  0  0  0  0  0  0  0  0  0  0
   10.7227   11.7271    0.8955 O   0  0  0  0  0  0  0  0  0  0  0  0
   11.1207   14.0149    1.6641 H   0  0  0  0  0  0  0  0  0  0  0  0
   12.4895   13.6890    2.6694 H   0  0  0  0  0  0  0  0  0  0  0  0
   16.5968   12.8378    4.2849 N   0  0  0  0  0  0  0  0  0  0  0  0
   16.5914   13.7230    5.4476 C   0  0  0  0  0  0  0  0  0  0  0  0
   15.1458   13.9503    5.9069 C   0  0  0  0  0  0  0  0  0  0  0  0
   14.8595   15.4129    6.1982 C   0  0  0  0  0  0  0  0  0  0  0  0
   16.8485   13.3934    2.9589 C   0  0  0  0  0  0  0  0  0  0  0  0
   16.0682   14.6738    2.6716 C   0  0  0  0  0  0  0  0  0  0  0  0
   15.2237   14.5004    1.4127 C   0  0  0  0  0  0  0  0  0  0  0  0
  3  5  1  0  0  0
  4  2  2  0  0  0
  5  6  2  0  0  0
  6  8  1  0  0  0
  7 20  1  0  0  0
  7  1  2  0  0  0
 21 20  1  0  0  0
 21 22  1  0  0  0
 22 23  1  0  0  0
 24 20  1  0  0  0
 24 25  1  0  0  0
 25 26  1  0  0  0
  9  3  1  0  0  0
  9 10  2  0  0  0
 11 12  2  0  0  0
 12 16  1  0  0  0
 13  8  2  0  0  0
 16 15  1  0  0  0
  4  1  1  0  0  0
  5  2  1  0  0  0
  6  7  1  0  0  0
  8  9  1  0  0  0
 10 11  1  0  0  0
 12 13  1  0  0  0
 16 17  2  0  0  0
  3 14  1  0  0  0
 15 18  1  0  0  0
 15 19  1  0  0  0
M  END
> <minimizedAffinity>
-8.13979

$$$$
CHEMBL3715062


 26 28  0  0  0  0  0  0  0  0999 V2000
   17.8802   11.3656    5.1745 N   0  0  0  0  0  0  0  0  0  0  0  0
   17.5331    8.9923    4.8966 N   0  0  0  0  0  0  0  0  0  0  0  0
   15.5417    8.4638    3.6853 N   0  0  0  0  0  0  0  0  0  0  0  0
   18.1944   10.0683    5.3471 C   0  0  0  0  0  0  0  0  0  0  0  0
   16.4148    9.3491    4.2503 C   0  0  0  0  0  0  0  0  0  0  0  0
   15.9463   10.6343    4.0249 C   0  0  0  0  0  0  0  0  0  0  0  0
   16.7677   11.6976    4.4632 C   0  0  0  0  0  0  0  0  0  0  0  0
   14.6660   10.4877    3.3942 C   0  0  0  0  0  0  0  0  0  0  0  0
   14.4781    9.1308    3.1243 C   0  0  0  0  0  0  0  0  0  0  0  0
   13.3692    8.6446    2.4235 C   0  0  0  0  0  0  0  0  0  0  0  0
   12.4303    9.5797    1.9691 C   0  0  0  0  0  0  0  0  0  0  0  0
   12.5602   10.9427    2.2544 C   0  0  0  0  0  0  0  0  0  0  0  0
   13.6439   11.3878    3.0210 C   0  0  0  0  0  0  0  0  0  0  0  0
   15.6744    7.4641    3.6952 H   0  0  0  0  0  0  0  0  0  0  0  0
   11.6870   13.2200    1.9753 N   0  0  0  0  0  0  0  0  0  0  0  0
   11.5441   11.8856    1.7071 C   0  0  0  0  0  0  0  0  0  0  0  0
   10.6216   11.4958    1.0004 O   0  0  0  0  0  0  0  0  0  0  0  0
   10.9983   13.8435    1.5747 H   0  0  0  0  0  0  0  0  0  0  0  0
   12.4484   13.6300    2.4924 H   0  0  0  0  0  0  0  0  0  0  0  0
   16.5102   13.0404    4.2238 N   0  0  0  0  0  0  0  0  0  0  0  0
   16.7296   13.5370    2.8671 C   0  0  0  0  0  0  0  0  0  0  0  0
   15.6034   14.5087    2.4930 C   0  0  0  0  0  0  0  0  0  0  0  0
   15.5317   14.7552    0.9963 C   0  0  0  0  0  0  0  0  0  0  0  0
   15.6685   13.8019    5.1413 C   0  0  0  0  0  0  0  0  0  0  0  0
   16.4337   14.8406    5.9577 C   0  0  0  0  0  0  0  0  0  0  0  0
   15.5040   15.9843    6.3522 C   0  0  0  0  0  0  0  0  0  0  0  0
  3  5  1  0  0  0
  4  2  2  0  0  0
  5  6  2  0  0  0
  6  8  1  0  0  0
  7 20  1  0  0  0
  7  1  2  0  0  0
 21 20  1  0  0  0
 21 22  1  0  0  0
 22 23  1  0  0  0
 24 20  1  0  0  0
 24 25  1  0  0  0
 25 26  1  0  0  0
  9  3  1  0  0  0
  9 10  2  0  0  0
 11 12  2  0  0  0
 12 16  1  0  0  0
 13  8  2  0  0  0
 16 15  1  0  0  0
  4  1  1  0  0  0
  5  2  1  0  0  0
  6  7  1  0  0  0
  8  9  1  0  0  0
 10 11  1  0  0  0
 12 13  1  0  0  0
 16 17  2  0  0  0
  3 14  1  0  0  0
 15 18  1  0  0  0
 15 19  1  0  0  0
M  END
> <minimizedAffinity>
-7.93205

$$$$
CHEMBL3715062


 26 28  0  0  0  0  0  0  0  0999 V2000
   12.8397   13.5421    2.8387 N   0  0  0  0  0  0  0  0  0  0  0  0
   11.9552   11.3680    2.2722 N   0  0  0  0  0  0  0  0  0  0  0  0
   13.3789    9.5663    2.9349 N   0  0  0  0  0  0  0  0  0  0  0  0
   11.9303   12.7083    2.3009 C   0  0  0  0  0  0  0  0  0  0  0  0
   13.0797   10.8945    2.8259 C   0  0  0  0  0  0  0  0  0  0  0  0
   14.1152   11.6265    3.3862 C   0  0  0  0  0  0  0  0  0  0  0  0
   13.9447   13.0282    3.4460 C   0  0  0  0  0  0  0  0  0  0  0  0
   15.1315   10.6766    3.7372 C   0  0  0  0  0  0  0  0  0  0  0  0
   14.6128    9.3989    3.5184 C   0  0  0  0  0  0  0  0  0  0  0  0
   15.3095    8.2318    3.8494 C   0  0  0  0  0  0  0  0  0  0  0  0
   16.5718    8.3773    4.4394 C   0  0  0  0  0  0  0  0  0  0  0  0
   17.1444    9.6378    4.6371 C   0  0  0  0  0  0  0  0  0  0  0  0
   16.4515   10.7834    4.2276 C   0  0  0  0  0  0  0  0  0  0  0  0
   12.7687    8.8280    2.6192 H   0  0  0  0  0  0  0  0  0  0  0  0
   18.5602    9.3658    6.6241 N   0  0  0  0  0  0  0  0  0  0  0  0
   18.4742    9.7199    5.3050 C   0  0  0  0  0  0  0  0  0  0  0  0
   19.4808   10.0556    4.6915 O   0  0  0  0  0  0  0  0  0  0  0  0
   19.4769    9.4078    7.0503 H   0  0  0  0  0  0  0  0  0  0  0  0
   17.7969    9.0194    7.1832 H   0  0  0  0  0  0  0  0  0  0  0  0
   14.8251   13.9016    4.0694 N   0  0  0  0  0  0  0  0  0  0  0  0
   14.8262   13.9282    5.5305 C   0  0  0  0  0  0  0  0  0  0  0  0
   15.6707   15.1127    6.0168 C   0  0  0  0  0  0  0  0  0  0  0  0
   14.8135   16.2883    6.4516 C   0  0  0  0  0  0  0  0  0  0  0  0
   15.9705   14.4356    3.3393 C   0  0  0  0  0  0  0  0  0  0  0  0
   15.5953   15.4666    2.2776 C   0  0  0  0  0  0  0  0  0  0  0  0
   15.5781   14.8147    0.8983 C   0  0  0  0  0  0  0  0  0  0  0  0
  3  5  1  0  0  0
  4  2  2  0  0  0
  5  6  2  0  0  0
  6  8  1  0  0  0
  7 20  1  0  0  0
  7  1  2  0  0  0
 21 20  1  0  0  0
 21 22  1  0  0  0
 22 23  1  0  0  0
 24 20  1  0  0  0
 24 25  1  0  0  0
 25 26  1  0  0  0
  9  3  1  0  0  0
  9 10  2  0  0  0
 11 12  2  0  0  0
 12 16  1  0  0  0
 13  8  2  0  0  0
 16 15  1  0  0  0
  4  1  1  0  0  0
  5  2  1  0  0  0
  6  7  1  0  0  0
  8  9  1  0  0  0
 10 11  1  0  0  0
 12 13  1  0  0  0
 16 17  2  0  0  0
  3 14  1  0  0  0
 15 18  1  0  0  0
 15 19  1  0  0  0
M  END
> <minimizedAffinity>
-7.88987

$$$$
CHEMBL3715062


 26 28  0  0  0  0  0  0  0  0999 V2000
   12.7165   13.3242    2.8020 N   0  0  0  0  0  0  0  0  0  0  0  0
   11.9306   11.1056    2.2634 N   0  0  0  0  0  0  0  0  0  0  0  0
   13.4359    9.3784    2.9440 N   0  0  0  0  0  0  0  0  0  0  0  0
   11.8449   12.4436    2.2764 C   0  0  0  0  0  0  0  0  0  0  0  0
   13.0765   10.6902    2.8200 C   0  0  0  0  0  0  0  0  0  0  0  0
   14.0788   11.4751    3.3691 C   0  0  0  0  0  0  0  0  0  0  0  0
   13.8449   12.8683    3.4127 C   0  0  0  0  0  0  0  0  0  0  0  0
   15.1379   10.5765    3.7288 C   0  0  0  0  0  0  0  0  0  0  0  0
   14.6772    9.2741    3.5264 C   0  0  0  0  0  0  0  0  0  0  0  0
   15.4269    8.1439    3.8695 C   0  0  0  0  0  0  0  0  0  0  0  0
   16.6823    8.3535    4.4546 C   0  0  0  0  0  0  0  0  0  0  0  0
   17.1976    9.6410    4.6361 C   0  0  0  0  0  0  0  0  0  0  0  0
   16.4525   10.7490    4.2147 C   0  0  0  0  0  0  0  0  0  0  0  0
   12.8593    8.6095    2.6385 H   0  0  0  0  0  0  0  0  0  0  0  0
   18.5919    9.6263    6.6565 N   0  0  0  0  0  0  0  0  0  0  0  0
   18.5235    9.7913    5.2997 C   0  0  0  0  0  0  0  0  0  0  0  0
   19.5416   10.0172    4.6556 O   0  0  0  0  0  0  0  0  0  0  0  0
   19.5059    9.7106    7.0822 H   0  0  0  0  0  0  0  0  0  0  0  0
   17.8173    9.3774    7.2509 H   0  0  0  0  0  0  0  0  0  0  0  0
   14.6859   13.7881    4.0236 N   0  0  0  0  0  0  0  0  0  0  0  0
   15.0081   15.0040    3.2800 C   0  0  0  0  0  0  0  0  0  0  0  0
   16.0715   14.6859    2.2215 C   0  0  0  0  0  0  0  0  0  0  0  0
   15.5289   14.8072    0.8084 C   0  0  0  0  0  0  0  0  0  0  0  0
   14.8843   13.7551    5.4693 C   0  0  0  0  0  0  0  0  0  0  0  0
   15.9937   14.6831    5.9580 C   0  0  0  0  0  0  0  0  0  0  0  0
   17.3445   13.9803    5.8602 C   0  0  0  0  0  0  0  0  0  0  0  0
  3  5  1  0  0  0
  4  2  2  0  0  0
  5  6  2  0  0  0
  6  8  1  0  0  0
  7 20  1  0  0  0
  7  1  2  0  0  0
 21 20  1  0  0  0
 21 22  1  0  0  0
 22 23  1  0  0  0
 24 20  1  0  0  0
 24 25  1  0  0  0
 25 26  1  0  0  0
  9  3  1  0  0  0
  9 10  2  0  0  0
 11 12  2  0  0  0
 12 16  1  0  0  0
 13  8  2  0  0  0
 16 15  1  0  0  0
  4  1  1  0  0  0
  5  2  1  0  0  0
  6  7  1  0  0  0
  8  9  1  0  0  0
 10 11  1  0  0  0
 12 13  1  0  0  0
 16 17  2  0  0  0
  3 14  1  0  0  0
 15 18  1  0  0  0
 15 19  1  0  0  0
M  END
> <minimizedAffinity>
-7.83574

$$$$
CHEMBL3715062


 26 28  0  0  0  0  0  0  0  0999 V2000
   18.7189   13.7266    4.9208 N   0  0  0  0  0  0  0  0  0  0  0  0
   19.5906   11.5566    5.5218 N   0  0  0  0  0  0  0  0  0  0  0  0
   18.1156    9.7592    4.9688 N   0  0  0  0  0  0  0  0  0  0  0  0
   19.6350   12.8948    5.4503 C   0  0  0  0  0  0  0  0  0  0  0  0
   18.4389   11.0849    5.0250 C   0  0  0  0  0  0  0  0  0  0  0  0
   17.3945   11.8164    4.4809 C   0  0  0  0  0  0  0  0  0  0  0  0
   17.5842   13.2126    4.3711 C   0  0  0  0  0  0  0  0  0  0  0  0
   16.3513   10.8730    4.1976 C   0  0  0  0  0  0  0  0  0  0  0  0
   16.8582    9.5943    4.4369 C   0  0  0  0  0  0  0  0  0  0  0  0
   16.1318    8.4293    4.1685 C   0  0  0  0  0  0  0  0  0  0  0  0
   14.8507    8.5774    3.6214 C   0  0  0  0  0  0  0  0  0  0  0  0
   14.2904    9.8405    3.4057 C   0  0  0  0  0  0  0  0  0  0  0  0
   15.0157   10.9865    3.7533 C   0  0  0  0  0  0  0  0  0  0  0  0
   18.7258    9.0209    5.2846 H   0  0  0  0  0  0  0  0  0  0  0  0
   12.4514    8.8197    2.1397 N   0  0  0  0  0  0  0  0  0  0  0  0
   12.9379    9.9240    2.7853 C   0  0  0  0  0  0  0  0  0  0  0  0
   12.2510   10.9350    2.8769 O   0  0  0  0  0  0  0  0  0  0  0  0
   11.5222    8.8922    1.7460 H   0  0  0  0  0  0  0  0  0  0  0  0
   12.9225    7.9315    2.0733 H   0  0  0  0  0  0  0  0  0  0  0  0
   16.6945   14.0809    3.7537 N   0  0  0  0  0  0  0  0  0  0  0  0
   16.2782   15.2643    4.5032 C   0  0  0  0  0  0  0  0  0  0  0  0
   15.2679   14.8536    5.5817 C   0  0  0  0  0  0  0  0  0  0  0  0
   14.8757   16.0183    6.4738 C   0  0  0  0  0  0  0  0  0  0  0  0
   16.5247   14.0508    2.3043 C   0  0  0  0  0  0  0  0  0  0  0  0
   15.2688   14.7700    1.8183 C   0  0  0  0  0  0  0  0  0  0  0  0
   14.0491   13.8706    1.9960 C   0  0  0  0  0  0  0  0  0  0  0  0
  3  5  1  0  0  0
  4  2  2  0  0  0
  5  6  2  0  0  0
  6  8  1  0  0  0
  7 20  1  0  0  0
  7  1  2  0  0  0
 21 20  1  0  0  0
 21 22  1  0  0  0
 22 23  1  0  0  0
 24 20  1  0  0  0
 24 25  1  0  0  0
 25 26  1  0  0  0
  9  3  1  0  0  0
  9 10  2  0  0  0
 11 12  2  0  0  0
 12 16  1  0  0  0
 13  8  2  0  0  0
 16 15  1  0  0  0
  4  1  1  0  0  0
  5  2  1  0  0  0
  6  7  1  0  0  0
  8  9  1  0  0  0
 10 11  1  0  0  0
 12 13  1  0  0  0
 16 17  2  0  0  0
  3 14  1  0  0  0
 15 18  1  0  0  0
 15 19  1  0  0  0
M  END
> <minimizedAffinity>
-7.57488

$$$$
CHEMBL3715062


 26 28  0  0  0  0  0  0  0  0999 V2000
   13.3525   14.3733    3.2564 N   0  0  0  0  0  0  0  0  0  0  0  0
   12.1495   12.4897    2.3425 N   0  0  0  0  0  0  0  0  0  0  0  0
   13.2045   10.3908    2.7824 N   0  0  0  0  0  0  0  0  0  0  0  0
   12.3500   13.7961    2.5685 C   0  0  0  0  0  0  0  0  0  0  0  0
   13.1416   11.7528    2.8605 C   0  0  0  0  0  0  0  0  0  0  0  0
   14.2496   12.2054    3.5601 C   0  0  0  0  0  0  0  0  0  0  0  0
   14.3153   13.5930    3.8206 C   0  0  0  0  0  0  0  0  0  0  0  0
   15.0671   11.0517    3.8032 C   0  0  0  0  0  0  0  0  0  0  0  0
   14.3541    9.9287    3.3791 C   0  0  0  0  0  0  0  0  0  0  0  0
   14.8216    8.6225    3.5586 C   0  0  0  0  0  0  0  0  0  0  0  0
   16.0517    8.4594    4.2091 C   0  0  0  0  0  0  0  0  0  0  0  0
   16.8161    9.5592    4.6119 C   0  0  0  0  0  0  0  0  0  0  0  0
   16.3534   10.8547    4.3516 C   0  0  0  0  0  0  0  0  0  0  0  0
   12.4988    9.8230    2.3389 H   0  0  0  0  0  0  0  0  0  0  0  0
   18.0427    9.0064    6.6653 N   0  0  0  0  0  0  0  0  0  0  0  0
   18.0970    9.3116    5.3323 C   0  0  0  0  0  0  0  0  0  0  0  0
   19.1757    9.3377    4.7509 O   0  0  0  0  0  0  0  0  0  0  0  0
   18.9228    8.8201    7.1283 H   0  0  0  0  0  0  0  0  0  0  0  0
   17.1970    8.9024    7.2031 H   0  0  0  0  0  0  0  0  0  0  0  0
   15.2907   14.2019    4.5980 N   0  0  0  0  0  0  0  0  0  0  0  0
   16.5281   14.6045    3.9329 C   0  0  0  0  0  0  0  0  0  0  0  0
   17.7271   14.1850    4.7925 C   0  0  0  0  0  0  0  0  0  0  0  0
   18.6050   15.3658    5.1680 C   0  0  0  0  0  0  0  0  0  0  0  0
   14.9407   14.7934    5.8856 C   0  0  0  0  0  0  0  0  0  0  0  0
   14.8083   16.3139    5.8469 C   0  0  0  0  0  0  0  0  0  0  0  0
   15.7156   16.9448    6.8990 C   0  0  0  0  0  0  0  0  0  0  0  0
  3  5  1  0  0  0
  4  2  2  0  0  0
  5  6  2  0  0  0
  6  8  1  0  0  0
  7 20  1  0  0  0
  7  1  2  0  0  0
 21 20  1  0  0  0
 21 22  1  0  0  0
 22 23  1  0  0  0
 24 20  1  0  0  0
 24 25  1  0  0  0
 25 26  1  0  0  0
  9  3  1  0  0  0
  9 10  2  0  0  0
 11 12  2  0  0  0
 12 16  1  0  0  0
 13  8  2  0  0  0
 16 15  1  0  0  0
  4  1  1  0  0  0
  5  2  1  0  0  0
  6  7  1  0  0  0
  8  9  1  0  0  0
 10 11  1  0  0  0
 12 13  1  0  0  0
 16 17  2  0  0  0
  3 14  1  0  0  0
 15 18  1  0  0  0
 15 19  1  0  0  0
M  END
> <minimizedAffinity>
-7.48726

$$$$
CHEMBL3715062


 26 28  0  0  0  0  0  0  0  0999 V2000
   16.1195   15.4477    4.1183 N   0  0  0  0  0  0  0  0  0  0  0  0
   14.0269   16.4603    3.4659 N   0  0  0  0  0  0  0  0  0  0  0  0
   12.4036   14.8753    2.7142 N   0  0  0  0  0  0  0  0  0  0  0  0
   15.2928   16.4885    3.9070 C   0  0  0  0  0  0  0  0  0  0  0  0
   13.6423   15.2082    3.1834 C   0  0  0  0  0  0  0  0  0  0  0  0
   14.3892   14.0478    3.3165 C   0  0  0  0  0  0  0  0  0  0  0  0
   15.6800   14.1819    3.8765 C   0  0  0  0  0  0  0  0  0  0  0  0
   13.5807   12.9891    2.7838 C   0  0  0  0  0  0  0  0  0  0  0  0
   12.3232   13.5208    2.4913 C   0  0  0  0  0  0  0  0  0  0  0  0
   11.2552   12.7366    2.0424 C   0  0  0  0  0  0  0  0  0  0  0  0
   11.4765   11.3601    1.9046 C   0  0  0  0  0  0  0  0  0  0  0  0
   12.7324   10.7946    2.1472 C   0  0  0  0  0  0  0  0  0  0  0  0
   13.7997   11.6183    2.5247 C   0  0  0  0  0  0  0  0  0  0  0  0
   11.6675   15.5459    2.5544 H   0  0  0  0  0  0  0  0  0  0  0  0
   13.8706    8.7026    2.7426 N   0  0  0  0  0  0  0  0  0  0  0  0
   12.8864    9.3179    2.0175 C   0  0  0  0  0  0  0  0  0  0  0  0
   12.1335    8.6534    1.3148 O   0  0  0  0  0  0  0  0  0  0  0  0
   13.9418    7.6970    2.6561 H   0  0  0  0  0  0  0  0  0  0  0  0
   14.4893    9.1640    3.3902 H   0  0  0  0  0  0  0  0  0  0  0  0
   16.5183   13.1190    4.1833 N   0  0  0  0  0  0  0  0  0  0  0  0
   17.9351   13.2620    3.8551 C   0  0  0  0  0  0  0  0  0  0  0  0
   18.7478   13.3791    5.1505 C   0  0  0  0  0  0  0  0  0  0  0  0
   19.9839   14.2438    4.9763 C   0  0  0  0  0  0  0  0  0  0  0  0
   16.1031   12.1128    5.1555 C   0  0  0  0  0  0  0  0  0  0  0  0
   16.1741   10.6823    4.6269 C   0  0  0  0  0  0  0  0  0  0  0  0
   17.2788    9.9133    5.3455 C   0  0  0  0  0  0  0  0  0  0  0  0
  3  5  1  0  0  0
  4  2  2  0  0  0
  5  6  2  0  0  0
  6  8  1  0  0  0
  7 20  1  0  0  0
  7  1  2  0  0  0
 21 20  1  0  0  0
 21 22  1  0  0  0
 22 23  1  0  0  0
 24 20  1  0  0  0
 24 25  1  0  0  0
 25 26  1  0  0  0
  9  3  1  0  0  0
  9 10  2  0  0  0
 11 12  2  0  0  0
 12 16  1  0  0  0
 13  8  2  0  0  0
 16 15  1  0  0  0
  4  1  1  0  0  0
  5  2  1  0  0  0
  6  7  1  0  0  0
  8  9  1  0  0  0
 10 11  1  0  0  0
 12 13  1  0  0  0
 16 17  2  0  0  0
  3 14  1  0  0  0
 15 18  1  0  0  0
 15 19  1  0  0  0
M  END
> <minimizedAffinity>
-7.21987

$$$$
CHEMBL3715062


 26 28  0  0  0  0  0  0  0  0999 V2000
   13.4275   14.9886    3.2606 N   0  0  0  0  0  0  0  0  0  0  0  0
   12.0673   13.2087    2.3598 N   0  0  0  0  0  0  0  0  0  0  0  0
   12.9690   11.0326    2.7643 N   0  0  0  0  0  0  0  0  0  0  0  0
   12.3705   14.4943    2.5899 C   0  0  0  0  0  0  0  0  0  0  0  0
   13.0110   12.3948    2.8524 C   0  0  0  0  0  0  0  0  0  0  0  0
   14.1639   12.7569    3.5318 C   0  0  0  0  0  0  0  0  0  0  0  0
   14.3396   14.1334    3.7998 C   0  0  0  0  0  0  0  0  0  0  0  0
   14.8965   11.5428    3.7505 C   0  0  0  0  0  0  0  0  0  0  0  0
   14.0922   10.4803    3.3340 C   0  0  0  0  0  0  0  0  0  0  0  0
   14.4631    9.1411    3.4955 C   0  0  0  0  0  0  0  0  0  0  0  0
   15.6901    8.8804    4.1192 C   0  0  0  0  0  0  0  0  0  0  0  0
   16.5435    9.9160    4.5132 C   0  0  0  0  0  0  0  0  0  0  0  0
   16.1750   11.2448    4.2709 C   0  0  0  0  0  0  0  0  0  0  0  0
   12.2136   10.5232    2.3319 H   0  0  0  0  0  0  0  0  0  0  0  0
   17.7470    9.0752    6.4807 N   0  0  0  0  0  0  0  0  0  0  0  0
   17.8163    9.5667    5.2053 C   0  0  0  0  0  0  0  0  0  0  0  0
   18.9015    9.6735    4.6456 O   0  0  0  0  0  0  0  0  0  0  0  0
   18.6219    8.8238    6.9223 H   0  0  0  0  0  0  0  0  0  0  0  0
   16.8954    8.8971    6.9888 H   0  0  0  0  0  0  0  0  0  0  0  0
   15.3739   14.6607    4.5607 N   0  0  0  0  0  0  0  0  0  0  0  0
   15.1623   14.7683    6.0026 C   0  0  0  0  0  0  0  0  0  0  0  0
   15.3469   16.2279    6.4360 C   0  0  0  0  0  0  0  0  0  0  0  0
   14.1166   16.7789    7.1351 C   0  0  0  0  0  0  0  0  0  0  0  0
   16.7322   14.6988    4.0280 C   0  0  0  0  0  0  0  0  0  0  0  0
   17.7929   14.2206    5.0165 C   0  0  0  0  0  0  0  0  0  0  0  0
   18.7997   15.3356    5.2836 C   0  0  0  0  0  0  0  0  0  0  0  0
  3  5  1  0  0  0
  4  2  2  0  0  0
  5  6  2  0  0  0
  6  8  1  0  0  0
  7 20  1  0  0  0
  7  1  2  0  0  0
 21 20  1  0  0  0
 21 22  1  0  0  0
 22 23  1  0  0  0
 24 20  1  0  0  0
 24 25  1  0  0  0
 25 26  1  0  0  0
  9  3  1  0  0  0
  9 10  2  0  0  0
 11 12  2  0  0  0
 12 16  1  0  0  0
 13  8  2  0  0  0
 16 15  1  0  0  0
  4  1  1  0  0  0
  5  2  1  0  0  0
  6  7  1  0  0  0
  8  9  1  0  0  0
 10 11  1  0  0  0
 12 13  1  0  0  0
 16 17  2  0  0  0
  3 14  1  0  0  0
 15 18  1  0  0  0
 15 19  1  0  0  0
M  END
> <minimizedAffinity>
-7.18280

$$$$
CHEMBL3715062


 26 28  0  0  0  0  0  0  0  0999 V2000
   15.6262   16.0661    4.2096 N   0  0  0  0  0  0  0  0  0  0  0  0
   13.4790   15.8936    3.1188 N   0  0  0  0  0  0  0  0  0  0  0  0
   12.7651   13.6367    2.7887 N   0  0  0  0  0  0  0  0  0  0  0  0
   14.5246   16.5667    3.6202 C   0  0  0  0  0  0  0  0  0  0  0  0
   13.6645   14.5703    3.2186 C   0  0  0  0  0  0  0  0  0  0  0  0
   14.7549   13.9119    3.7660 C   0  0  0  0  0  0  0  0  0  0  0  0
   15.7591   14.7181    4.3483 C   0  0  0  0  0  0  0  0  0  0  0  0
   14.5331   12.5131    3.5368 C   0  0  0  0  0  0  0  0  0  0  0  0
   13.2525   12.3683    2.9997 C   0  0  0  0  0  0  0  0  0  0  0  0
   12.6752   11.1199    2.7442 C   0  0  0  0  0  0  0  0  0  0  0  0
   13.4267    9.9819    3.0648 C   0  0  0  0  0  0  0  0  0  0  0  0
   14.7287   10.0837    3.5653 C   0  0  0  0  0  0  0  0  0  0  0  0
   15.3044   11.3478    3.7408 C   0  0  0  0  0  0  0  0  0  0  0  0
   11.8762   13.8671    2.3717 H   0  0  0  0  0  0  0  0  0  0  0  0
   15.1862    7.6995    3.2013 N   0  0  0  0  0  0  0  0  0  0  0  0
   15.4560    8.8323    3.9202 C   0  0  0  0  0  0  0  0  0  0  0  0
   16.3052    8.8121    4.8038 O   0  0  0  0  0  0  0  0  0  0  0  0
   15.7081    6.8677    3.4450 H   0  0  0  0  0  0  0  0  0  0  0  0
   14.5517    7.6447    2.4205 H   0  0  0  0  0  0  0  0  0  0  0  0
   16.8608   14.2278    5.0358 N   0  0  0  0  0  0  0  0  0  0  0  0
   17.9349   13.6282    4.2472 C   0  0  0  0  0  0  0  0  0  0  0  0
   18.8719   12.8460    5.1760 C   0  0  0  0  0  0  0  0  0  0  0  0
   18.7381   11.3444    4.9941 C   0  0  0  0  0  0  0  0  0  0  0  0
   17.1301   14.6680    6.4011 C   0  0  0  0  0  0  0  0  0  0  0  0
   17.9876   15.9285    6.4818 C   0  0  0  0  0  0  0  0  0  0  0  0
   18.6589   16.0180    7.8491 C   0  0  0  0  0  0  0  0  0  0  0  0
  3  5  1  0  0  0
  4  2  2  0  0  0
  5  6  2  0  0  0
  6  8  1  0  0  0
  7 20  1  0  0  0
  7  1  2  0  0  0
 21 20  1  0  0  0
 21 22  1  0  0  0
 22 23  1  0  0  0
 24 20  1  0  0  0
 24 25  1  0  0  0
 25 26  1  0  0  0
  9  3  1  0  0  0
  9 10  2  0  0  0
 11 12  2  0  0  0
 12 16  1  0  0  0
 13  8  2  0  0  0
 16 15  1  0  0  0
  4  1  1  0  0  0
  5  2  1  0  0  0
  6  7  1  0  0  0
  8  9  1  0  0  0
 10 11  1  0  0  0
 12 13  1  0  0  0
 16 17  2  0  0  0
  3 14  1  0  0  0
 15 18  1  0  0  0
 15 19  1  0  0  0
M  END
> <minimizedAffinity>
-6.98146

$$$$
CHEMBL3717493


 28 31  0  0  0  0  0  0  0  0999 V2000
   14.1209   14.3121    3.7625 C   0  0  0  0  0  0  0  0  0  0  0  0
   12.1174   14.7519    2.6219 C   0  0  0  0  0  0  0  0  0  0  0  0
   12.7371   12.6291    2.8146 C   0  0  0  0  0  0  0  0  0  0  0  0
   13.9062   12.9435    3.4850 C   0  0  0  0  0  0  0  0  0  0  0  0
   14.6062   11.7032    3.6724 C   0  0  0  0  0  0  0  0  0  0  0  0
   13.7940   10.6769    3.1842 C   0  0  0  0  0  0  0  0  0  0  0  0
   14.1561    9.3258    3.2478 C   0  0  0  0  0  0  0  0  0  0  0  0
   15.3889    9.0034    3.8342 C   0  0  0  0  0  0  0  0  0  0  0  0
   16.2447    9.9998    4.3112 C   0  0  0  0  0  0  0  0  0  0  0  0
   15.8632   11.3469    4.2044 C   0  0  0  0  0  0  0  0  0  0  0  0
   13.2043   15.1930    3.2725 N   0  0  0  0  0  0  0  0  0  0  0  0
   11.8039   13.4781    2.3699 N   0  0  0  0  0  0  0  0  0  0  0  0
   12.6696   11.2737    2.6651 N   0  0  0  0  0  0  0  0  0  0  0  0
   11.2420   15.7007    2.1749 N   0  0  0  0  0  0  0  0  0  0  0  0
   11.9015   10.8000    2.2150 H   0  0  0  0  0  0  0  0  0  0  0  0
   10.4193   15.3955    1.6878 H   0  0  0  0  0  0  0  0  0  0  0  0
   11.4630   16.6616    2.3657 H   0  0  0  0  0  0  0  0  0  0  0  0
   16.2434   17.0829    5.8627 C   0  0  0  0  0  0  0  0  0  0  0  0
   16.1290   17.0770    4.3399 C   0  0  0  0  0  0  0  0  0  0  0  0
   16.1718   15.6537    3.7882 C   0  0  0  0  0  0  0  0  0  0  0  0
   15.2041   14.7909    5.9265 C   0  0  0  0  0  0  0  0  0  0  0  0
   15.1498   16.2147    6.4771 C   0  0  0  0  0  0  0  0  0  0  0  0
   15.2047   14.8008    4.4676 N   0  0  0  0  0  0  0  0  0  0  0  0
   17.5571    9.7233    4.9656 C   0  0  0  0  0  0  0  0  0  0  0  0
   17.5700    9.2036    6.2280 N   0  0  0  0  0  0  0  0  0  0  0  0
   18.6186    9.9624    4.3986 O   0  0  0  0  0  0  0  0  0  0  0  0
   18.4812    9.0407    6.6373 H   0  0  0  0  0  0  0  0  0  0  0  0
   16.7574    8.9649    6.7715 H   0  0  0  0  0  0  0  0  0  0  0  0
 18 19  1  0  0  0
 19 20  1  0  0  0
 20 23  1  0  0  0
 21 23  1  0  0  0
 21 22  1  0  0  0
 22 18  1  0  0  0
  2 11  2  0  0  0
  2 14  1  0  0  0
  3 12  2  0  0  0
  4  5  1  0  0  0
  4  1  2  0  0  0
  6 13  1  0  0  0
  6  7  2  0  0  0
  8  9  2  0  0  0
  9 24  1  0  0  0
 10  5  2  0  0  0
 24 25  1  0  0  0
 23  1  1  0  0  0
 13  3  1  0  0  0
  1 11  1  0  0  0
  2 12  1  0  0  0
  3  4  1  0  0  0
  5  6  1  0  0  0
  7  8  1  0  0  0
  9 10  1  0  0  0
 24 26  2  0  0  0
 13 15  1  0  0  0
 25 27  1  0  0  0
 25 28  1  0  0  0
 14 16  1  0  0  0
 14 17  1  0  0  0
M  END
> <minimizedAffinity>
-9.60064

$$$$
CHEMBL3717493


 28 31  0  0  0  0  0  0  0  0999 V2000
   16.6450   11.0656    4.6844 C   0  0  0  0  0  0  0  0  0  0  0  0
   17.7022    9.0979    5.4046 C   0  0  0  0  0  0  0  0  0  0  0  0
   15.8783    8.8790    4.1585 C   0  0  0  0  0  0  0  0  0  0  0  0
   15.6763   10.2449    4.0648 C   0  0  0  0  0  0  0  0  0  0  0  0
   14.4421   10.4189    3.3507 C   0  0  0  0  0  0  0  0  0  0  0  0
   13.9896    9.1545    2.9661 C   0  0  0  0  0  0  0  0  0  0  0  0
   12.8255    8.9608    2.2126 C   0  0  0  0  0  0  0  0  0  0  0  0
   12.0945   10.0952    1.8302 C   0  0  0  0  0  0  0  0  0  0  0  0
   12.4958   11.3771    2.2157 C   0  0  0  0  0  0  0  0  0  0  0  0
   13.6522   11.5329    2.9968 C   0  0  0  0  0  0  0  0  0  0  0  0
   17.6323   10.4372    5.3820 N   0  0  0  0  0  0  0  0  0  0  0  0
   16.8690    8.2478    4.7984 N   0  0  0  0  0  0  0  0  0  0  0  0
   14.8813    8.2416    3.4776 N   0  0  0  0  0  0  0  0  0  0  0  0
   18.7307    8.5486    6.1165 N   0  0  0  0  0  0  0  0  0  0  0  0
   14.8171    7.2388    3.3922 H   0  0  0  0  0  0  0  0  0  0  0  0
   18.8064    7.5483    6.1460 H   0  0  0  0  0  0  0  0  0  0  0  0
   19.3685    9.1780    6.5699 H   0  0  0  0  0  0  0  0  0  0  0  0
   15.2500   14.7390    3.6103 C   0  0  0  0  0  0  0  0  0  0  0  0
   16.0966   13.8529    2.6991 C   0  0  0  0  0  0  0  0  0  0  0  0
   17.1892   13.1340    3.4875 C   0  0  0  0  0  0  0  0  0  0  0  0
   15.7613   13.2044    5.5392 C   0  0  0  0  0  0  0  0  0  0  0  0
   14.6621   13.9137    4.7505 C   0  0  0  0  0  0  0  0  0  0  0  0
   16.6316   12.4473    4.6458 N   0  0  0  0  0  0  0  0  0  0  0  0
   11.7771   12.6248    1.8237 C   0  0  0  0  0  0  0  0  0  0  0  0
   11.2091   12.6990    0.5844 N   0  0  0  0  0  0  0  0  0  0  0  0
   11.6962   13.5837    2.5849 O   0  0  0  0  0  0  0  0  0  0  0  0
   10.7401   13.5665    0.3565 H   0  0  0  0  0  0  0  0  0  0  0  0
   11.2120   11.9669   -0.1061 H   0  0  0  0  0  0  0  0  0  0  0  0
 18 19  1  0  0  0
 19 20  1  0  0  0
 20 23  1  0  0  0
 21 23  1  0  0  0
 21 22  1  0  0  0
 22 18  1  0  0  0
  2 11  2  0  0  0
  2 14  1  0  0  0
  3 12  2  0  0  0
  4  5  1  0  0  0
  4  1  2  0  0  0
  6 13  1  0  0  0
  6  7  2  0  0  0
  8  9  2  0  0  0
  9 24  1  0  0  0
 10  5  2  0  0  0
 24 25  1  0  0  0
 23  1  1  0  0  0
 13  3  1  0  0  0
  1 11  1  0  0  0
  2 12  1  0  0  0
  3  4  1  0  0  0
  5  6  1  0  0  0
  7  8  1  0  0  0
  9 10  1  0  0  0
 24 26  2  0  0  0
 13 15  1  0  0  0
 25 27  1  0  0  0
 25 28  1  0  0  0
 14 16  1  0  0  0
 14 17  1  0  0  0
M  END
> <minimizedAffinity>
-9.44706

$$$$
CHEMBL3717493


 28 31  0  0  0  0  0  0  0  0999 V2000
   15.7994   10.7696    4.1311 C   0  0  0  0  0  0  0  0  0  0  0  0
   15.8118    8.4228    4.1093 C   0  0  0  0  0  0  0  0  0  0  0  0
   14.0947    9.4432    3.1410 C   0  0  0  0  0  0  0  0  0  0  0  0
   14.5570   10.7076    3.4614 C   0  0  0  0  0  0  0  0  0  0  0  0
   13.5466   11.6275    3.0181 C   0  0  0  0  0  0  0  0  0  0  0  0
   12.5525   10.8900    2.3706 C   0  0  0  0  0  0  0  0  0  0  0  0
   11.4314   11.4828    1.7772 C   0  0  0  0  0  0  0  0  0  0  0  0
   11.3171   12.8795    1.8392 C   0  0  0  0  0  0  0  0  0  0  0  0
   12.2742   13.6540    2.5002 C   0  0  0  0  0  0  0  0  0  0  0  0
   13.3708   13.0242    3.1103 C   0  0  0  0  0  0  0  0  0  0  0  0
   16.3784    9.5837    4.4700 N   0  0  0  0  0  0  0  0  0  0  0  0
   14.6752    8.2718    3.4238 N   0  0  0  0  0  0  0  0  0  0  0  0
   12.9131    9.5669    2.4683 N   0  0  0  0  0  0  0  0  0  0  0  0
   16.4644    7.2804    4.4775 N   0  0  0  0  0  0  0  0  0  0  0  0
   12.3856    8.7817    2.1188 H   0  0  0  0  0  0  0  0  0  0  0  0
   16.0619    6.3989    4.2165 H   0  0  0  0  0  0  0  0  0  0  0  0
   17.3243    7.3815    4.9862 H   0  0  0  0  0  0  0  0  0  0  0  0
   16.2961   14.8079    4.3276 C   0  0  0  0  0  0  0  0  0  0  0  0
   16.6330   13.9703    3.0959 C   0  0  0  0  0  0  0  0  0  0  0  0
   17.2565   12.6334    3.4908 C   0  0  0  0  0  0  0  0  0  0  0  0
   16.0175   12.6916    5.6621 C   0  0  0  0  0  0  0  0  0  0  0  0
   15.3837   14.0236    5.2653 C   0  0  0  0  0  0  0  0  0  0  0  0
   16.4358   11.9460    4.4798 N   0  0  0  0  0  0  0  0  0  0  0  0
   12.2238   15.1433    2.5826 C   0  0  0  0  0  0  0  0  0  0  0  0
   11.0843   15.7887    2.1967 N   0  0  0  0  0  0  0  0  0  0  0  0
   13.1847   15.7959    2.9780 O   0  0  0  0  0  0  0  0  0  0  0  0
   11.0969   16.7987    2.2598 H   0  0  0  0  0  0  0  0  0  0  0  0
   10.2427   15.3454    1.8683 H   0  0  0  0  0  0  0  0  0  0  0  0
 18 19  1  0  0  0
 19 20  1  0  0  0
 20 23  1  0  0  0
 21 23  1  0  0  0
 21 22  1  0  0  0
 22 18  1  0  0  0
  2 11  2  0  0  0
  2 14  1  0  0  0
  3 12  2  0  0  0
  4  5  1  0  0  0
  4  1  2  0  0  0
  6 13  1  0  0  0
  6  7  2  0  0  0
  8  9  2  0  0  0
  9 24  1  0  0  0
 10  5  2  0  0  0
 24 25  1  0  0  0
 23  1  1  0  0  0
 13  3  1  0  0  0
  1 11  1  0  0  0
  2 12  1  0  0  0
  3  4  1  0  0  0
  5  6  1  0  0  0
  7  8  1  0  0  0
  9 10  1  0  0  0
 24 26  2  0  0  0
 13 15  1  0  0  0
 25 27  1  0  0  0
 25 28  1  0  0  0
 14 16  1  0  0  0
 14 17  1  0  0  0
M  END
> <minimizedAffinity>
-9.27647

$$$$
CHEMBL3717493


 28 31  0  0  0  0  0  0  0  0999 V2000
   16.7923   12.4608    4.1535 C   0  0  0  0  0  0  0  0  0  0  0  0
   18.4060   11.0869    5.1619 C   0  0  0  0  0  0  0  0  0  0  0  0
   16.6368   10.0923    4.2629 C   0  0  0  0  0  0  0  0  0  0  0  0
   16.0534   11.2878    3.8813 C   0  0  0  0  0  0  0  0  0  0  0  0
   14.7745   10.9485    3.3220 C   0  0  0  0  0  0  0  0  0  0  0  0
   14.6704    9.5556    3.3090 C   0  0  0  0  0  0  0  0  0  0  0  0
   13.5593    8.8814    2.7880 C   0  0  0  0  0  0  0  0  0  0  0  0
   12.5149    9.6512    2.2549 C   0  0  0  0  0  0  0  0  0  0  0  0
   12.5652   11.0476    2.2717 C   0  0  0  0  0  0  0  0  0  0  0  0
   13.6815   11.6917    2.8291 C   0  0  0  0  0  0  0  0  0  0  0  0
   17.9613   12.3099    4.8369 N   0  0  0  0  0  0  0  0  0  0  0  0
   17.8060    9.9246    4.8909 N   0  0  0  0  0  0  0  0  0  0  0  0
   15.8152    9.0668    3.8927 N   0  0  0  0  0  0  0  0  0  0  0  0
   19.5932   11.0239    5.8350 N   0  0  0  0  0  0  0  0  0  0  0  0
   16.0296    8.0946    4.0535 H   0  0  0  0  0  0  0  0  0  0  0  0
   19.9486   10.1198    6.0866 H   0  0  0  0  0  0  0  0  0  0  0  0
   20.0578   11.8910    6.0371 H   0  0  0  0  0  0  0  0  0  0  0  0
   14.2515   15.2674    2.6501 C   0  0  0  0  0  0  0  0  0  0  0  0
   15.1167   14.3547    1.7837 C   0  0  0  0  0  0  0  0  0  0  0  0
   16.4975   14.1510    2.4034 C   0  0  0  0  0  0  0  0  0  0  0  0
   15.5337   14.5157    4.6819 C   0  0  0  0  0  0  0  0  0  0  0  0
   14.1493   14.7090    4.0659 C   0  0  0  0  0  0  0  0  0  0  0  0
   16.3888   13.7334    3.7955 N   0  0  0  0  0  0  0  0  0  0  0  0
   11.5000   11.9234    1.7011 C   0  0  0  0  0  0  0  0  0  0  0  0
   11.5630   13.2695    1.9202 N   0  0  0  0  0  0  0  0  0  0  0  0
   10.5684   11.4588    1.0517 O   0  0  0  0  0  0  0  0  0  0  0  0
   10.8155   13.8245    1.5235 H   0  0  0  0  0  0  0  0  0  0  0  0
   12.2881   13.7468    2.4293 H   0  0  0  0  0  0  0  0  0  0  0  0
 18 19  1  0  0  0
 19 20  1  0  0  0
 20 23  1  0  0  0
 21 23  1  0  0  0
 21 22  1  0  0  0
 22 18  1  0  0  0
  2 11  2  0  0  0
  2 14  1  0  0  0
  3 12  2  0  0  0
  4  5  1  0  0  0
  4  1  2  0  0  0
  6 13  1  0  0  0
  6  7  2  0  0  0
  8  9  2  0  0  0
  9 24  1  0  0  0
 10  5  2  0  0  0
 24 25  1  0  0  0
 23  1  1  0  0  0
 13  3  1  0  0  0
  1 11  1  0  0  0
  2 12  1  0  0  0
  3  4  1  0  0  0
  5  6  1  0  0  0
  7  8  1  0  0  0
  9 10  1  0  0  0
 24 26  2  0  0  0
 13 15  1  0  0  0
 25 27  1  0  0  0
 25 28  1  0  0  0
 14 16  1  0  0  0
 14 17  1  0  0  0
M  END
> <minimizedAffinity>
-9.25929

$$$$
CHEMBL3717493


 28 31  0  0  0  0  0  0  0  0999 V2000
   14.2290   12.6822    2.9872 C   0  0  0  0  0  0  0  0  0  0  0  0
   12.2277   12.1981    1.8608 C   0  0  0  0  0  0  0  0  0  0  0  0
   13.3703   10.4864    2.6927 C   0  0  0  0  0  0  0  0  0  0  0  0
   14.3893   11.2907    3.1721 C   0  0  0  0  0  0  0  0  0  0  0  0
   15.3798   10.4021    3.7131 C   0  0  0  0  0  0  0  0  0  0  0  0
   14.8830    9.1001    3.6171 C   0  0  0  0  0  0  0  0  0  0  0  0
   15.5814    7.9834    4.0922 C   0  0  0  0  0  0  0  0  0  0  0  0
   16.8309    8.1970    4.6926 C   0  0  0  0  0  0  0  0  0  0  0  0
   17.3780    9.4796    4.7856 C   0  0  0  0  0  0  0  0  0  0  0  0
   16.6637   10.5738    4.2718 C   0  0  0  0  0  0  0  0  0  0  0  0
   13.1352   13.0902    2.2847 N   0  0  0  0  0  0  0  0  0  0  0  0
   12.2669   10.8755    2.0441 N   0  0  0  0  0  0  0  0  0  0  0  0
   13.6639    9.1861    2.9875 N   0  0  0  0  0  0  0  0  0  0  0  0
   11.1543   12.6924    1.1754 N   0  0  0  0  0  0  0  0  0  0  0  0
   13.0644    8.4111    2.7489 H   0  0  0  0  0  0  0  0  0  0  0  0
   10.4597   12.0450    0.8504 H   0  0  0  0  0  0  0  0  0  0  0  0
   11.1097   13.6863    1.0385 H   0  0  0  0  0  0  0  0  0  0  0  0
   15.6203   16.4519    3.6558 C   0  0  0  0  0  0  0  0  0  0  0  0
   15.7380   15.7290    2.3158 C   0  0  0  0  0  0  0  0  0  0  0  0
   16.0539   14.2479    2.5130 C   0  0  0  0  0  0  0  0  0  0  0  0
   14.9004   14.2926    4.7312 C   0  0  0  0  0  0  0  0  0  0  0  0
   14.5733   15.7713    4.5319 C   0  0  0  0  0  0  0  0  0  0  0  0
   15.1190   13.6343    3.4476 N   0  0  0  0  0  0  0  0  0  0  0  0
   18.6897    9.7775    5.4319 C   0  0  0  0  0  0  0  0  0  0  0  0
   18.8136    9.6155    6.7819 N   0  0  0  0  0  0  0  0  0  0  0  0
   19.6504   10.1731    4.7792 O   0  0  0  0  0  0  0  0  0  0  0  0
   19.7171    9.8379    7.1798 H   0  0  0  0  0  0  0  0  0  0  0  0
   18.0910    9.2884    7.4013 H   0  0  0  0  0  0  0  0  0  0  0  0
 18 19  1  0  0  0
 19 20  1  0  0  0
 20 23  1  0  0  0
 21 23  1  0  0  0
 21 22  1  0  0  0
 22 18  1  0  0  0
  2 11  2  0  0  0
  2 14  1  0  0  0
  3 12  2  0  0  0
  4  5  1  0  0  0
  4  1  2  0  0  0
  6 13  1  0  0  0
  6  7  2  0  0  0
  8  9  2  0  0  0
  9 24  1  0  0  0
 10  5  2  0  0  0
 24 25  1  0  0  0
 23  1  1  0  0  0
 13  3  1  0  0  0
  1 11  1  0  0  0
  2 12  1  0  0  0
  3  4  1  0  0  0
  5  6  1  0  0  0
  7  8  1  0  0  0
  9 10  1  0  0  0
 24 26  2  0  0  0
 13 15  1  0  0  0
 25 27  1  0  0  0
 25 28  1  0  0  0
 14 16  1  0  0  0
 14 17  1  0  0  0
M  END
> <minimizedAffinity>
-9.17701

$$$$
CHEMBL3717493


 28 31  0  0  0  0  0  0  0  0999 V2000
   15.1520   14.3195    3.9657 C   0  0  0  0  0  0  0  0  0  0  0  0
   14.3871   16.5334    3.8169 C   0  0  0  0  0  0  0  0  0  0  0  0
   13.0670   14.9412    3.0107 C   0  0  0  0  0  0  0  0  0  0  0  0
   13.9645   13.9303    3.3067 C   0  0  0  0  0  0  0  0  0  0  0  0
   13.3913   12.7207    2.7852 C   0  0  0  0  0  0  0  0  0  0  0  0
   12.1310   13.0333    2.2700 C   0  0  0  0  0  0  0  0  0  0  0  0
   11.2765   12.0721    1.7166 C   0  0  0  0  0  0  0  0  0  0  0  0
   11.7164   10.7404    1.6894 C   0  0  0  0  0  0  0  0  0  0  0  0
   12.9805   10.3871    2.1691 C   0  0  0  0  0  0  0  0  0  0  0  0
   13.8239   11.3814    2.6902 C   0  0  0  0  0  0  0  0  0  0  0  0
   15.3366   15.6540    4.1693 N   0  0  0  0  0  0  0  0  0  0  0  0
   13.2123   16.2497    3.2479 N   0  0  0  0  0  0  0  0  0  0  0  0
   11.9677   14.3904    2.4173 N   0  0  0  0  0  0  0  0  0  0  0  0
   14.6466   17.8509    4.0682 N   0  0  0  0  0  0  0  0  0  0  0  0
   11.1677   14.9268    2.1185 H   0  0  0  0  0  0  0  0  0  0  0  0
   13.9500   18.5281    3.8164 H   0  0  0  0  0  0  0  0  0  0  0  0
   15.5233   18.0757    4.5034 H   0  0  0  0  0  0  0  0  0  0  0  0
   17.0534   10.7264    4.2258 C   0  0  0  0  0  0  0  0  0  0  0  0
   15.8099   11.0892    5.0348 C   0  0  0  0  0  0  0  0  0  0  0  0
   15.8580   12.5431    5.4995 C   0  0  0  0  0  0  0  0  0  0  0  0
   17.2690   13.1335    3.5212 C   0  0  0  0  0  0  0  0  0  0  0  0
   17.2136   11.6822    3.0479 C   0  0  0  0  0  0  0  0  0  0  0  0
   16.1325   13.4394    4.3835 N   0  0  0  0  0  0  0  0  0  0  0  0
   13.4990    8.9879    2.1902 C   0  0  0  0  0  0  0  0  0  0  0  0
   14.8055    8.7718    2.5222 N   0  0  0  0  0  0  0  0  0  0  0  0
   12.7809    8.0343    1.9062 O   0  0  0  0  0  0  0  0  0  0  0  0
   15.1174    7.8090    2.5145 H   0  0  0  0  0  0  0  0  0  0  0  0
   15.4699    9.4827    2.7789 H   0  0  0  0  0  0  0  0  0  0  0  0
 18 19  1  0  0  0
 19 20  1  0  0  0
 20 23  1  0  0  0
 21 23  1  0  0  0
 21 22  1  0  0  0
 22 18  1  0  0  0
  2 11  2  0  0  0
  2 14  1  0  0  0
  3 12  2  0  0  0
  4  5  1  0  0  0
  4  1  2  0  0  0
  6 13  1  0  0  0
  6  7  2  0  0  0
  8  9  2  0  0  0
  9 24  1  0  0  0
 10  5  2  0  0  0
 24 25  1  0  0  0
 23  1  1  0  0  0
 13  3  1  0  0  0
  1 11  1  0  0  0
  2 12  1  0  0  0
  3  4  1  0  0  0
  5  6  1  0  0  0
  7  8  1  0  0  0
  9 10  1  0  0  0
 24 26  2  0  0  0
 13 15  1  0  0  0
 25 27  1  0  0  0
 25 28  1  0  0  0
 14 16  1  0  0  0
 14 17  1  0  0  0
M  END
> <minimizedAffinity>
-8.90968

$$$$
CHEMBL3717493


 28 31  0  0  0  0  0  0  0  0999 V2000
   16.2391   14.8870    4.5923 C   0  0  0  0  0  0  0  0  0  0  0  0
   15.2151   16.8940    3.9353 C   0  0  0  0  0  0  0  0  0  0  0  0
   14.1659   15.0023    3.4372 C   0  0  0  0  0  0  0  0  0  0  0  0
   15.1597   14.2090    3.9831 C   0  0  0  0  0  0  0  0  0  0  0  0
   14.7813   12.8500    3.7118 C   0  0  0  0  0  0  0  0  0  0  0  0
   13.5317   12.8715    3.0878 C   0  0  0  0  0  0  0  0  0  0  0  0
   12.8461   11.7075    2.7196 C   0  0  0  0  0  0  0  0  0  0  0  0
   13.4504   10.4731    3.0001 C   0  0  0  0  0  0  0  0  0  0  0  0
   14.7113   10.4054    3.5986 C   0  0  0  0  0  0  0  0  0  0  0  0
   15.3842   11.5931    3.9276 C   0  0  0  0  0  0  0  0  0  0  0  0
   16.2399   16.2471    4.5099 N   0  0  0  0  0  0  0  0  0  0  0  0
   14.1287   16.3387    3.3914 N   0  0  0  0  0  0  0  0  0  0  0  0
   13.1894   14.1937    2.9307 N   0  0  0  0  0  0  0  0  0  0  0  0
   15.2888   18.2579    3.9062 N   0  0  0  0  0  0  0  0  0  0  0  0
   12.3518   14.5404    2.4889 H   0  0  0  0  0  0  0  0  0  0  0  0
   14.5325   18.7651    3.4842 H   0  0  0  0  0  0  0  0  0  0  0  0
   16.0971   18.6872    4.3194 H   0  0  0  0  0  0  0  0  0  0  0  0
   19.9975   14.5673    6.1303 C   0  0  0  0  0  0  0  0  0  0  0  0
   19.6731   14.4229    4.6450 C   0  0  0  0  0  0  0  0  0  0  0  0
   18.3608   13.6702    4.4368 C   0  0  0  0  0  0  0  0  0  0  0  0
   17.5361   14.4861    6.6521 C   0  0  0  0  0  0  0  0  0  0  0  0
   18.8433   15.2490    6.8583 C   0  0  0  0  0  0  0  0  0  0  0  0
   17.2900   14.2573    5.2323 N   0  0  0  0  0  0  0  0  0  0  0  0
   15.3984    9.1265    3.9442 C   0  0  0  0  0  0  0  0  0  0  0  0
   15.0801    7.9959    3.2482 N   0  0  0  0  0  0  0  0  0  0  0  0
   16.2311    9.0693    4.8435 O   0  0  0  0  0  0  0  0  0  0  0  0
   15.5627    7.1493    3.5217 H   0  0  0  0  0  0  0  0  0  0  0  0
   14.4204    7.9409    2.4902 H   0  0  0  0  0  0  0  0  0  0  0  0
 18 19  1  0  0  0
 19 20  1  0  0  0
 20 23  1  0  0  0
 21 23  1  0  0  0
 21 22  1  0  0  0
 22 18  1  0  0  0
  2 11  2  0  0  0
  2 14  1  0  0  0
  3 12  2  0  0  0
  4  5  1  0  0  0
  4  1  2  0  0  0
  6 13  1  0  0  0
  6  7  2  0  0  0
  8  9  2  0  0  0
  9 24  1  0  0  0
 10  5  2  0  0  0
 24 25  1  0  0  0
 23  1  1  0  0  0
 13  3  1  0  0  0
  1 11  1  0  0  0
  2 12  1  0  0  0
  3  4  1  0  0  0
  5  6  1  0  0  0
  7  8  1  0  0  0
  9 10  1  0  0  0
 24 26  2  0  0  0
 13 15  1  0  0  0
 25 27  1  0  0  0
 25 28  1  0  0  0
 14 16  1  0  0  0
 14 17  1  0  0  0
M  END
> <minimizedAffinity>
-8.67337

$$$$
CHEMBL3717493


 28 31  0  0  0  0  0  0  0  0999 V2000
   14.4931   15.4921    4.1474 C   0  0  0  0  0  0  0  0  0  0  0  0
   12.5325   15.1282    2.9097 C   0  0  0  0  0  0  0  0  0  0  0  0
   13.8465   13.3775    3.2780 C   0  0  0  0  0  0  0  0  0  0  0  0
   14.7896   14.1231    3.9634 C   0  0  0  0  0  0  0  0  0  0  0  0
   15.8688   13.2241    4.2647 C   0  0  0  0  0  0  0  0  0  0  0  0
   15.4988   11.9508    3.8251 C   0  0  0  0  0  0  0  0  0  0  0  0
   16.3083   10.8218    3.9995 C   0  0  0  0  0  0  0  0  0  0  0  0
   17.5396   10.9908    4.6499 C   0  0  0  0  0  0  0  0  0  0  0  0
   17.9614   12.2510    5.0819 C   0  0  0  0  0  0  0  0  0  0  0  0
   17.1377   13.3671    4.8641 C   0  0  0  0  0  0  0  0  0  0  0  0
   13.3554   15.9618    3.5633 N   0  0  0  0  0  0  0  0  0  0  0  0
   12.7019   13.8141    2.7408 N   0  0  0  0  0  0  0  0  0  0  0  0
   14.2684   12.0801    3.2255 N   0  0  0  0  0  0  0  0  0  0  0  0
   11.4069   15.6784    2.3649 N   0  0  0  0  0  0  0  0  0  0  0  0
   13.7433   11.3404    2.7851 H   0  0  0  0  0  0  0  0  0  0  0  0
   10.7737   15.0745    1.8734 H   0  0  0  0  0  0  0  0  0  0  0  0
   11.2647   16.6643    2.4925 H   0  0  0  0  0  0  0  0  0  0  0  0
   15.3076   18.8015    6.3786 C   0  0  0  0  0  0  0  0  0  0  0  0
   15.1139   18.8256    4.8640 C   0  0  0  0  0  0  0  0  0  0  0  0
   15.7435   17.5992    4.2070 C   0  0  0  0  0  0  0  0  0  0  0  0
   15.3869   16.2864    6.3052 C   0  0  0  0  0  0  0  0  0  0  0  0
   14.7467   17.5082    6.9615 C   0  0  0  0  0  0  0  0  0  0  0  0
   15.2932   16.3721    4.8518 N   0  0  0  0  0  0  0  0  0  0  0  0
   19.2470   12.4950    5.7994 C   0  0  0  0  0  0  0  0  0  0  0  0
   19.2114   12.8587    7.1149 N   0  0  0  0  0  0  0  0  0  0  0  0
   20.3288   12.3860    5.2307 O   0  0  0  0  0  0  0  0  0  0  0  0
   20.1055   13.0234    7.5596 H   0  0  0  0  0  0  0  0  0  0  0  0
   18.3794   12.9652    7.6708 H   0  0  0  0  0  0  0  0  0  0  0  0
 18 19  1  0  0  0
 19 20  1  0  0  0
 20 23  1  0  0  0
 21 23  1  0  0  0
 21 22  1  0  0  0
 22 18  1  0  0  0
  2 11  2  0  0  0
  2 14  1  0  0  0
  3 12  2  0  0  0
  4  5  1  0  0  0
  4  1  2  0  0  0
  6 13  1  0  0  0
  6  7  2  0  0  0
  8  9  2  0  0  0
  9 24  1  0  0  0
 10  5  2  0  0  0
 24 25  1  0  0  0
 23  1  1  0  0  0
 13  3  1  0  0  0
  1 11  1  0  0  0
  2 12  1  0  0  0
  3  4  1  0  0  0
  5  6  1  0  0  0
  7  8  1  0  0  0
  9 10  1  0  0  0
 24 26  2  0  0  0
 13 15  1  0  0  0
 25 27  1  0  0  0
 25 28  1  0  0  0
 14 16  1  0  0  0
 14 17  1  0  0  0
M  END
> <minimizedAffinity>
-8.57583

$$$$
CHEMBL3717493


 28 31  0  0  0  0  0  0  0  0999 V2000
   16.9069   13.5224    4.5952 C   0  0  0  0  0  0  0  0  0  0  0  0
   19.0339   13.4193    5.5819 C   0  0  0  0  0  0  0  0  0  0  0  0
   18.1009   11.5018    4.9657 C   0  0  0  0  0  0  0  0  0  0  0  0
   16.9419   12.1121    4.5191 C   0  0  0  0  0  0  0  0  0  0  0  0
   16.0577   11.0513    4.1237 C   0  0  0  0  0  0  0  0  0  0  0  0
   16.7477    9.8451    4.2662 C   0  0  0  0  0  0  0  0  0  0  0  0
   16.1902    8.6062    3.9276 C   0  0  0  0  0  0  0  0  0  0  0  0
   14.8828    8.5912    3.4198 C   0  0  0  0  0  0  0  0  0  0  0  0
   14.1463    9.7713    3.2858 C   0  0  0  0  0  0  0  0  0  0  0  0
   14.7256   10.9934    3.6630 C   0  0  0  0  0  0  0  0  0  0  0  0
   17.9760   14.1365    5.1752 N   0  0  0  0  0  0  0  0  0  0  0  0
   19.1782   12.0944    5.4926 N   0  0  0  0  0  0  0  0  0  0  0  0
   17.9829   10.1537    4.7852 N   0  0  0  0  0  0  0  0  0  0  0  0
   20.0688   14.1144    6.1408 N   0  0  0  0  0  0  0  0  0  0  0  0
   18.7063    9.4934    5.0253 H   0  0  0  0  0  0  0  0  0  0  0  0
   20.8734   13.6004    6.4502 H   0  0  0  0  0  0  0  0  0  0  0  0
   19.9752   15.1122    6.2058 H   0  0  0  0  0  0  0  0  0  0  0  0
   14.8854   16.9861    3.8811 C   0  0  0  0  0  0  0  0  0  0  0  0
   14.9395   16.3006    5.2447 C   0  0  0  0  0  0  0  0  0  0  0  0
   14.8666   14.7818    5.1027 C   0  0  0  0  0  0  0  0  0  0  0  0
   15.9129   14.9388    2.8369 C   0  0  0  0  0  0  0  0  0  0  0  0
   15.9972   16.4572    2.9805 C   0  0  0  0  0  0  0  0  0  0  0  0
   15.8548   14.2985    4.1466 N   0  0  0  0  0  0  0  0  0  0  0  0
   12.7617    9.8270    2.7317 C   0  0  0  0  0  0  0  0  0  0  0  0
   12.2629    8.7318    2.0870 N   0  0  0  0  0  0  0  0  0  0  0  0
   12.0707   10.8357    2.8344 O   0  0  0  0  0  0  0  0  0  0  0  0
   11.3240    8.8163    1.7188 H   0  0  0  0  0  0  0  0  0  0  0  0
   12.7445    7.8574    1.9593 H   0  0  0  0  0  0  0  0  0  0  0  0
 18 19  1  0  0  0
 19 20  1  0  0  0
 20 23  1  0  0  0
 21 23  1  0  0  0
 21 22  1  0  0  0
 22 18  1  0  0  0
  2 11  2  0  0  0
  2 14  1  0  0  0
  3 12  2  0  0  0
  4  5  1  0  0  0
  4  1  2  0  0  0
  6 13  1  0  0  0
  6  7  2  0  0  0
  8  9  2  0  0  0
  9 24  1  0  0  0
 10  5  2  0  0  0
 24 25  1  0  0  0
 23  1  1  0  0  0
 13  3  1  0  0  0
  1 11  1  0  0  0
  2 12  1  0  0  0
  3  4  1  0  0  0
  5  6  1  0  0  0
  7  8  1  0  0  0
  9 10  1  0  0  0
 24 26  2  0  0  0
 13 15  1  0  0  0
 25 27  1  0  0  0
 25 28  1  0  0  0
 14 16  1  0  0  0
 14 17  1  0  0  0
M  END
> <minimizedAffinity>
-8.31745

$$$$
CHEMBL3716812


 26 29  0  0  0  0  0  0  0  0999 V2000
   12.7811   12.0658    2.4555 N   0  0  0  0  0  0  0  0  0  0  0  0
   12.3738    9.7908    1.7735 N   0  0  0  0  0  0  0  0  0  0  0  0
   13.9562    8.2367    2.6606 N   0  0  0  0  0  0  0  0  0  0  0  0
   12.0795   11.1032    1.8162 C   0  0  0  0  0  0  0  0  0  0  0  0
   13.4514    9.4968    2.5115 C   0  0  0  0  0  0  0  0  0  0  0  0
   14.2386   10.3740    3.2371 C   0  0  0  0  0  0  0  0  0  0  0  0
   13.8955   11.7402    3.1652 C   0  0  0  0  0  0  0  0  0  0  0  0
   15.2201    9.5746    3.9116 C   0  0  0  0  0  0  0  0  0  0  0  0
   15.0431    8.2509    3.5033 C   0  0  0  0  0  0  0  0  0  0  0  0
   15.8681    7.2074    3.9377 C   0  0  0  0  0  0  0  0  0  0  0  0
   16.9172    7.5236    4.8138 C   0  0  0  0  0  0  0  0  0  0  0  0
   17.1143    8.8319    5.2670 C   0  0  0  0  0  0  0  0  0  0  0  0
   16.2478    9.8500    4.8380 C   0  0  0  0  0  0  0  0  0  0  0  0
   10.8788   11.5492    1.0380 C   0  0  0  0  0  0  0  0  0  0  0  0
   13.5621    7.4222    2.2158 H   0  0  0  0  0  0  0  0  0  0  0  0
   14.6357   12.7470    3.7704 N   0  0  0  0  0  0  0  0  0  0  0  0
   14.6085   12.7717    5.2332 C   0  0  0  0  0  0  0  0  0  0  0  0
   15.5565   13.8470    5.7525 C   0  0  0  0  0  0  0  0  0  0  0  0
   16.9899   13.5266    5.3387 C   0  0  0  0  0  0  0  0  0  0  0  0
   17.0909   12.9954    3.9046 C   0  0  0  0  0  0  0  0  0  0  0  0
   15.8276   13.2353    3.0802 C   0  0  0  0  0  0  0  0  0  0  0  0
   18.2208    8.7995    7.4665 N   0  0  0  0  0  0  0  0  0  0  0  0
   18.2304    9.2341    6.1721 C   0  0  0  0  0  0  0  0  0  0  0  0
   19.1580    9.9330    5.7761 O   0  0  0  0  0  0  0  0  0  0  0  0
   19.0034    9.0846    8.0414 H   0  0  0  0  0  0  0  0  0  0  0  0
   17.5032    8.2350    7.8896 H   0  0  0  0  0  0  0  0  0  0  0  0
  3  5  1  0  0  0
  4  2  2  0  0  0
  5  6  2  0  0  0
  6  8  1  0  0  0
  7 16  1  0  0  0
  7  1  2  0  0  0
 17 16  1  0  0  0
 17 18  1  0  0  0
 18 19  1  0  0  0
 19 20  1  0  0  0
 20 21  1  0  0  0
 21 16  1  0  0  0
  9  3  1  0  0  0
  9 10  2  0  0  0
 11 12  2  0  0  0
 12 23  1  0  0  0
 13  8  2  0  0  0
 23 22  1  0  0  0
 14  4  1  0  0  0
  4  1  1  0  0  0
  5  2  1  0  0  0
  6  7  1  0  0  0
  8  9  1  0  0  0
 10 11  1  0  0  0
 12 13  1  0  0  0
 23 24  2  0  0  0
  3 15  1  0  0  0
 22 25  1  0  0  0
 22 26  1  0  0  0
M  END
> <minimizedAffinity>
-9.38552

$$$$
CHEMBL3716812


 26 29  0  0  0  0  0  0  0  0999 V2000
   15.3067   15.6834    4.5849 N   0  0  0  0  0  0  0  0  0  0  0  0
   13.3045   16.3621    3.4286 N   0  0  0  0  0  0  0  0  0  0  0  0
   12.1489   14.5486    2.3883 N   0  0  0  0  0  0  0  0  0  0  0  0
   14.3897   16.5946    4.1897 C   0  0  0  0  0  0  0  0  0  0  0  0
   13.1735   15.0636    3.1299 C   0  0  0  0  0  0  0  0  0  0  0  0
   14.0161   14.0278    3.4939 C   0  0  0  0  0  0  0  0  0  0  0  0
   15.1666   14.3769    4.2314 C   0  0  0  0  0  0  0  0  0  0  0  0
   13.4140   12.8232    3.0003 C   0  0  0  0  0  0  0  0  0  0  0  0
   12.2711   13.1827    2.2827 C   0  0  0  0  0  0  0  0  0  0  0  0
   11.4649   12.2479    1.6238 C   0  0  0  0  0  0  0  0  0  0  0  0
   11.8398   10.8976    1.6905 C   0  0  0  0  0  0  0  0  0  0  0  0
   12.9625   10.4918    2.4190 C   0  0  0  0  0  0  0  0  0  0  0  0
   13.7311   11.4519    3.0965 C   0  0  0  0  0  0  0  0  0  0  0  0
   14.6308   18.0153    4.6015 C   0  0  0  0  0  0  0  0  0  0  0  0
   11.4094   15.1094    1.9944 H   0  0  0  0  0  0  0  0  0  0  0  0
   16.1454   13.4632    4.5988 N   0  0  0  0  0  0  0  0  0  0  0  0
   16.9707   12.9359    3.5115 C   0  0  0  0  0  0  0  0  0  0  0  0
   18.0708   12.0458    4.0788 C   0  0  0  0  0  0  0  0  0  0  0  0
   18.9915   12.8613    4.9819 C   0  0  0  0  0  0  0  0  0  0  0  0
   18.2305   13.8550    5.8663 C   0  0  0  0  0  0  0  0  0  0  0  0
   16.7296   13.5792    5.9331 C   0  0  0  0  0  0  0  0  0  0  0  0
   14.5184    8.7824    3.2679 N   0  0  0  0  0  0  0  0  0  0  0  0
   13.4286    9.0765    2.4997 C   0  0  0  0  0  0  0  0  0  0  0  0
   12.8483    8.1746    1.9034 O   0  0  0  0  0  0  0  0  0  0  0  0
   14.7917    7.8087    3.3050 H   0  0  0  0  0  0  0  0  0  0  0  0
   15.0681    9.4487    3.7843 H   0  0  0  0  0  0  0  0  0  0  0  0
  3  5  1  0  0  0
  4  2  2  0  0  0
  5  6  2  0  0  0
  6  8  1  0  0  0
  7 16  1  0  0  0
  7  1  2  0  0  0
 17 16  1  0  0  0
 17 18  1  0  0  0
 18 19  1  0  0  0
 19 20  1  0  0  0
 20 21  1  0  0  0
 21 16  1  0  0  0
  9  3  1  0  0  0
  9 10  2  0  0  0
 11 12  2  0  0  0
 12 23  1  0  0  0
 13  8  2  0  0  0
 23 22  1  0  0  0
 14  4  1  0  0  0
  4  1  1  0  0  0
  5  2  1  0  0  0
  6  7  1  0  0  0
  8  9  1  0  0  0
 10 11  1  0  0  0
 12 13  1  0  0  0
 23 24  2  0  0  0
  3 15  1  0  0  0
 22 25  1  0  0  0
 22 26  1  0  0  0
M  END
> <minimizedAffinity>
-9.22796

$$$$
CHEMBL3716812


 26 29  0  0  0  0  0  0  0  0999 V2000
   17.5371   11.1226    5.1621 N   0  0  0  0  0  0  0  0  0  0  0  0
   17.2095    8.7600    4.8195 N   0  0  0  0  0  0  0  0  0  0  0  0
   15.2023    8.2429    3.6321 N   0  0  0  0  0  0  0  0  0  0  0  0
   17.9053    9.8254    5.2573 C   0  0  0  0  0  0  0  0  0  0  0  0
   16.0837    9.1228    4.1923 C   0  0  0  0  0  0  0  0  0  0  0  0
   15.6060   10.4071    3.9976 C   0  0  0  0  0  0  0  0  0  0  0  0
   16.3667   11.4566    4.5535 C   0  0  0  0  0  0  0  0  0  0  0  0
   14.4115   10.2805    3.2137 C   0  0  0  0  0  0  0  0  0  0  0  0
   14.1641    8.9179    3.0334 C   0  0  0  0  0  0  0  0  0  0  0  0
   13.0439    8.4355    2.3475 C   0  0  0  0  0  0  0  0  0  0  0  0
   12.1372    9.3742    1.8327 C   0  0  0  0  0  0  0  0  0  0  0  0
   12.3599   10.7481    1.9690 C   0  0  0  0  0  0  0  0  0  0  0  0
   13.5114   11.1992    2.6340 C   0  0  0  0  0  0  0  0  0  0  0  0
   19.1967    9.5417    5.9630 C   0  0  0  0  0  0  0  0  0  0  0  0
   15.3233    7.2422    3.6548 H   0  0  0  0  0  0  0  0  0  0  0  0
   15.9765   12.7884    4.5124 N   0  0  0  0  0  0  0  0  0  0  0  0
   15.1270   13.2419    5.6143 C   0  0  0  0  0  0  0  0  0  0  0  0
   14.8826   14.7423    5.4984 C   0  0  0  0  0  0  0  0  0  0  0  0
   16.2027   15.4990    5.6129 C   0  0  0  0  0  0  0  0  0  0  0  0
   17.3485   14.8144    4.8597 C   0  0  0  0  0  0  0  0  0  0  0  0
   16.8731   13.7493    3.8735 C   0  0  0  0  0  0  0  0  0  0  0  0
   11.6589   13.1007    1.7766 N   0  0  0  0  0  0  0  0  0  0  0  0
   11.4166   11.7920    1.4718 C   0  0  0  0  0  0  0  0  0  0  0  0
   10.4401   11.5015    0.7879 O   0  0  0  0  0  0  0  0  0  0  0  0
   11.0017   13.7764    1.4080 H   0  0  0  0  0  0  0  0  0  0  0  0
   12.4221   13.4398    2.3380 H   0  0  0  0  0  0  0  0  0  0  0  0
  3  5  1  0  0  0
  4  2  2  0  0  0
  5  6  2  0  0  0
  6  8  1  0  0  0
  7 16  1  0  0  0
  7  1  2  0  0  0
 17 16  1  0  0  0
 17 18  1  0  0  0
 18 19  1  0  0  0
 19 20  1  0  0  0
 20 21  1  0  0  0
 21 16  1  0  0  0
  9  3  1  0  0  0
  9 10  2  0  0  0
 11 12  2  0  0  0
 12 23  1  0  0  0
 13  8  2  0  0  0
 23 22  1  0  0  0
 14  4  1  0  0  0
  4  1  1  0  0  0
  5  2  1  0  0  0
  6  7  1  0  0  0
  8  9  1  0  0  0
 10 11  1  0  0  0
 12 13  1  0  0  0
 23 24  2  0  0  0
  3 15  1  0  0  0
 22 25  1  0  0  0
 22 26  1  0  0  0
M  END
> <minimizedAffinity>
-9.21374

$$$$
CHEMBL3716812


 26 29  0  0  0  0  0  0  0  0999 V2000
   13.2264   14.4503    3.4761 N   0  0  0  0  0  0  0  0  0  0  0  0
   11.8586   12.9084    2.2279 N   0  0  0  0  0  0  0  0  0  0  0  0
   12.6604   10.6592    2.2965 N   0  0  0  0  0  0  0  0  0  0  0  0
   12.1552   14.1260    2.7179 C   0  0  0  0  0  0  0  0  0  0  0  0
   12.7366   11.9812    2.6302 C   0  0  0  0  0  0  0  0  0  0  0  0
   13.8521   12.1692    3.4276 C   0  0  0  0  0  0  0  0  0  0  0  0
   14.1230   13.4919    3.8356 C   0  0  0  0  0  0  0  0  0  0  0  0
   14.4248   10.8708    3.6359 C   0  0  0  0  0  0  0  0  0  0  0  0
   13.6827    9.9543    2.8879 C   0  0  0  0  0  0  0  0  0  0  0  0
   13.9998    8.5927    2.8270 C   0  0  0  0  0  0  0  0  0  0  0  0
   15.1185    8.1483    3.5476 C   0  0  0  0  0  0  0  0  0  0  0  0
   15.8740    9.0280    4.3294 C   0  0  0  0  0  0  0  0  0  0  0  0
   15.5087   10.3822    4.3953 C   0  0  0  0  0  0  0  0  0  0  0  0
   11.2293   15.2445    2.3466 C   0  0  0  0  0  0  0  0  0  0  0  0
   11.9382   10.2737    1.7078 H   0  0  0  0  0  0  0  0  0  0  0  0
   15.2465   13.8509    4.5682 N   0  0  0  0  0  0  0  0  0  0  0  0
   16.3434   14.4501    3.8073 C   0  0  0  0  0  0  0  0  0  0  0  0
   17.4490   14.8999    4.7559 C   0  0  0  0  0  0  0  0  0  0  0  0
   16.9229   15.9757    5.7016 C   0  0  0  0  0  0  0  0  0  0  0  0
   15.5054   15.6835    6.2059 C   0  0  0  0  0  0  0  0  0  0  0  0
   15.0623   14.2419    5.9641 C   0  0  0  0  0  0  0  0  0  0  0  0
   17.7160    9.5429    5.8802 N   0  0  0  0  0  0  0  0  0  0  0  0
   17.0911    8.6207    5.0907 C   0  0  0  0  0  0  0  0  0  0  0  0
   17.5321    7.4771    5.0322 O   0  0  0  0  0  0  0  0  0  0  0  0
   18.5294    9.2206    6.3889 H   0  0  0  0  0  0  0  0  0  0  0  0
   17.4414   10.5052    5.9867 H   0  0  0  0  0  0  0  0  0  0  0  0
  3  5  1  0  0  0
  4  2  2  0  0  0
  5  6  2  0  0  0
  6  8  1  0  0  0
  7 16  1  0  0  0
  7  1  2  0  0  0
 17 16  1  0  0  0
 17 18  1  0  0  0
 18 19  1  0  0  0
 19 20  1  0  0  0
 20 21  1  0  0  0
 21 16  1  0  0  0
  9  3  1  0  0  0
  9 10  2  0  0  0
 11 12  2  0  0  0
 12 23  1  0  0  0
 13  8  2  0  0  0
 23 22  1  0  0  0
 14  4  1  0  0  0
  4  1  1  0  0  0
  5  2  1  0  0  0
  6  7  1  0  0  0
  8  9  1  0  0  0
 10 11  1  0  0  0
 12 13  1  0  0  0
 23 24  2  0  0  0
  3 15  1  0  0  0
 22 25  1  0  0  0
 22 26  1  0  0  0
M  END
> <minimizedAffinity>
-9.10954

$$$$
CHEMBL3716812


 26 29  0  0  0  0  0  0  0  0999 V2000
   18.7154   13.7151    4.8298 N   0  0  0  0  0  0  0  0  0  0  0  0
   19.7595   11.7063    5.6550 N   0  0  0  0  0  0  0  0  0  0  0  0
   18.4453    9.7422    5.3066 N   0  0  0  0  0  0  0  0  0  0  0  0
   19.7275   13.0283    5.4052 C   0  0  0  0  0  0  0  0  0  0  0  0
   18.6621   11.0866    5.2035 C   0  0  0  0  0  0  0  0  0  0  0  0
   17.5720   11.6600    4.5722 C   0  0  0  0  0  0  0  0  0  0  0  0
   17.5953   13.0617    4.4172 C   0  0  0  0  0  0  0  0  0  0  0  0
   16.6956   10.5814    4.2174 C   0  0  0  0  0  0  0  0  0  0  0  0
   17.2480    9.4020    4.7215 C   0  0  0  0  0  0  0  0  0  0  0  0
   16.6223    8.1569    4.5930 C   0  0  0  0  0  0  0  0  0  0  0  0
   15.3846    8.1112    3.9340 C   0  0  0  0  0  0  0  0  0  0  0  0
   14.8083    9.2646    3.3923 C   0  0  0  0  0  0  0  0  0  0  0  0
   15.4785   10.4928    3.5095 C   0  0  0  0  0  0  0  0  0  0  0  0
   20.9146   13.8264    5.8524 C   0  0  0  0  0  0  0  0  0  0  0  0
   19.0934    9.1051    5.7433 H   0  0  0  0  0  0  0  0  0  0  0  0
   16.5424   13.7888    3.8783 N   0  0  0  0  0  0  0  0  0  0  0  0
   16.3935   13.7195    2.4242 C   0  0  0  0  0  0  0  0  0  0  0  0
   15.1333   14.4624    1.9949 C   0  0  0  0  0  0  0  0  0  0  0  0
   13.9007   13.7980    2.6012 C   0  0  0  0  0  0  0  0  0  0  0  0
   14.1150   13.3587    4.0538 C   0  0  0  0  0  0  0  0  0  0  0  0
   15.3497   13.9850    4.6993 C   0  0  0  0  0  0  0  0  0  0  0  0
   12.6582   10.3573    2.8957 N   0  0  0  0  0  0  0  0  0  0  0  0
   13.4812    9.2837    2.7101 C   0  0  0  0  0  0  0  0  0  0  0  0
   13.1216    8.3655    1.9798 O   0  0  0  0  0  0  0  0  0  0  0  0
   11.7740   10.3352    2.4039 H   0  0  0  0  0  0  0  0  0  0  0  0
   12.8547   11.1516    3.4814 H   0  0  0  0  0  0  0  0  0  0  0  0
  3  5  1  0  0  0
  4  2  2  0  0  0
  5  6  2  0  0  0
  6  8  1  0  0  0
  7 16  1  0  0  0
  7  1  2  0  0  0
 17 16  1  0  0  0
 17 18  1  0  0  0
 18 19  1  0  0  0
 19 20  1  0  0  0
 20 21  1  0  0  0
 21 16  1  0  0  0
  9  3  1  0  0  0
  9 10  2  0  0  0
 11 12  2  0  0  0
 12 23  1  0  0  0
 13  8  2  0  0  0
 23 22  1  0  0  0
 14  4  1  0  0  0
  4  1  1  0  0  0
  5  2  1  0  0  0
  6  7  1  0  0  0
  8  9  1  0  0  0
 10 11  1  0  0  0
 12 13  1  0  0  0
 23 24  2  0  0  0
  3 15  1  0  0  0
 22 25  1  0  0  0
 22 26  1  0  0  0
M  END
> <minimizedAffinity>
-9.07248

$$$$
CHEMBL3716812


 26 29  0  0  0  0  0  0  0  0999 V2000
   17.5693   13.3446    4.9701 N   0  0  0  0  0  0  0  0  0  0  0  0
   18.1221   11.0006    5.0516 N   0  0  0  0  0  0  0  0  0  0  0  0
   16.4224    9.5927    4.1377 N   0  0  0  0  0  0  0  0  0  0  0  0
   18.3878   12.3051    5.2476 C   0  0  0  0  0  0  0  0  0  0  0  0
   16.9309   10.8160    4.4691 C   0  0  0  0  0  0  0  0  0  0  0  0
   16.0134   11.7863    4.1051 C   0  0  0  0  0  0  0  0  0  0  0  0
   16.3474   13.1212    4.4143 C   0  0  0  0  0  0  0  0  0  0  0  0
   14.9344   11.1001    3.4553 C   0  0  0  0  0  0  0  0  0  0  0  0
   15.1992    9.7307    3.5242 C   0  0  0  0  0  0  0  0  0  0  0  0
   14.3210    8.7631    3.0233 C   0  0  0  0  0  0  0  0  0  0  0  0
   13.1251    9.2048    2.4377 C   0  0  0  0  0  0  0  0  0  0  0  0
   12.8326   10.5678    2.3258 C   0  0  0  0  0  0  0  0  0  0  0  0
   13.7509   11.5139    2.8085 C   0  0  0  0  0  0  0  0  0  0  0  0
   19.7056   12.6357    5.8804 C   0  0  0  0  0  0  0  0  0  0  0  0
   16.9012    8.7234    4.3155 H   0  0  0  0  0  0  0  0  0  0  0  0
   15.4967   14.1945    4.1860 N   0  0  0  0  0  0  0  0  0  0  0  0
   15.2646   15.0823    5.3258 C   0  0  0  0  0  0  0  0  0  0  0  0
   14.4149   16.2720    4.8934 C   0  0  0  0  0  0  0  0  0  0  0  0
   15.1539   17.0876    3.8365 C   0  0  0  0  0  0  0  0  0  0  0  0
   15.8852   16.2122    2.8128 C   0  0  0  0  0  0  0  0  0  0  0  0
   15.4381   14.7518    2.8364 C   0  0  0  0  0  0  0  0  0  0  0  0
   10.9619   10.4022    0.7332 N   0  0  0  0  0  0  0  0  0  0  0  0
   11.5645   11.0961    1.7430 C   0  0  0  0  0  0  0  0  0  0  0  0
   11.0483   12.1288    2.1587 O   0  0  0  0  0  0  0  0  0  0  0  0
   10.0972   10.7889    0.3767 H   0  0  0  0  0  0  0  0  0  0  0  0
   11.3094    9.5551    0.3158 H   0  0  0  0  0  0  0  0  0  0  0  0
  3  5  1  0  0  0
  4  2  2  0  0  0
  5  6  2  0  0  0
  6  8  1  0  0  0
  7 16  1  0  0  0
  7  1  2  0  0  0
 17 16  1  0  0  0
 17 18  1  0  0  0
 18 19  1  0  0  0
 19 20  1  0  0  0
 20 21  1  0  0  0
 21 16  1  0  0  0
  9  3  1  0  0  0
  9 10  2  0  0  0
 11 12  2  0  0  0
 12 23  1  0  0  0
 13  8  2  0  0  0
 23 22  1  0  0  0
 14  4  1  0  0  0
  4  1  1  0  0  0
  5  2  1  0  0  0
  6  7  1  0  0  0
  8  9  1  0  0  0
 10 11  1  0  0  0
 12 13  1  0  0  0
 23 24  2  0  0  0
  3 15  1  0  0  0
 22 25  1  0  0  0
 22 26  1  0  0  0
M  END
> <minimizedAffinity>
-8.69661

$$$$
CHEMBL3716812


 26 29  0  0  0  0  0  0  0  0999 V2000
   13.1699   12.8521    2.6453 N   0  0  0  0  0  0  0  0  0  0  0  0
   12.9351   10.4542    2.6777 N   0  0  0  0  0  0  0  0  0  0  0  0
   14.8171    9.3295    3.6262 N   0  0  0  0  0  0  0  0  0  0  0  0
   12.4952   11.7011    2.4279 C   0  0  0  0  0  0  0  0  0  0  0  0
   14.1461   10.4574    3.2486 C   0  0  0  0  0  0  0  0  0  0  0  0
   14.9290   11.5571    3.5539 C   0  0  0  0  0  0  0  0  0  0  0  0
   14.4161   12.8198    3.1907 C   0  0  0  0  0  0  0  0  0  0  0  0
   16.0966   11.0519    4.2163 C   0  0  0  0  0  0  0  0  0  0  0  0
   16.0169    9.6576    4.2130 C   0  0  0  0  0  0  0  0  0  0  0  0
   17.0217    8.8401    4.7424 C   0  0  0  0  0  0  0  0  0  0  0  0
   18.1535    9.4641    5.2883 C   0  0  0  0  0  0  0  0  0  0  0  0
   18.2620   10.8576    5.3344 C   0  0  0  0  0  0  0  0  0  0  0  0
   17.2205   11.6494    4.8246 C   0  0  0  0  0  0  0  0  0  0  0  0
   11.1387   11.8233    1.8023 C   0  0  0  0  0  0  0  0  0  0  0  0
   14.4573    8.3968    3.4952 H   0  0  0  0  0  0  0  0  0  0  0  0
   15.1177   14.0063    3.3570 N   0  0  0  0  0  0  0  0  0  0  0  0
   15.2292   14.8567    2.1713 C   0  0  0  0  0  0  0  0  0  0  0  0
   15.9147   16.1689    2.5355 C   0  0  0  0  0  0  0  0  0  0  0  0
   15.0754   16.9336    3.5550 C   0  0  0  0  0  0  0  0  0  0  0  0
   14.4674   16.0236    4.6280 C   0  0  0  0  0  0  0  0  0  0  0  0
   15.1036   14.6357    4.6757 C   0  0  0  0  0  0  0  0  0  0  0  0
   19.9894   12.6024    5.1475 N   0  0  0  0  0  0  0  0  0  0  0  0
   19.4537   11.5768    5.8724 C   0  0  0  0  0  0  0  0  0  0  0  0
   19.9518   11.2755    6.9526 O   0  0  0  0  0  0  0  0  0  0  0  0
   20.7882   13.0711    5.5556 H   0  0  0  0  0  0  0  0  0  0  0  0
   19.6634   12.9176    4.2491 H   0  0  0  0  0  0  0  0  0  0  0  0
  3  5  1  0  0  0
  4  2  2  0  0  0
  5  6  2  0  0  0
  6  8  1  0  0  0
  7 16  1  0  0  0
  7  1  2  0  0  0
 17 16  1  0  0  0
 17 18  1  0  0  0
 18 19  1  0  0  0
 19 20  1  0  0  0
 20 21  1  0  0  0
 21 16  1  0  0  0
  9  3  1  0  0  0
  9 10  2  0  0  0
 11 12  2  0  0  0
 12 23  1  0  0  0
 13  8  2  0  0  0
 23 22  1  0  0  0
 14  4  1  0  0  0
  4  1  1  0  0  0
  5  2  1  0  0  0
  6  7  1  0  0  0
  8  9  1  0  0  0
 10 11  1  0  0  0
 12 13  1  0  0  0
 23 24  2  0  0  0
  3 15  1  0  0  0
 22 25  1  0  0  0
 22 26  1  0  0  0
M  END
> <minimizedAffinity>
-8.25888

$$$$
CHEMBL3716812


 26 29  0  0  0  0  0  0  0  0999 V2000
   15.0163   11.1512    3.5553 N   0  0  0  0  0  0  0  0  0  0  0  0
   16.9482    9.9064    4.2793 N   0  0  0  0  0  0  0  0  0  0  0  0
   18.7623   11.2933    4.9807 N   0  0  0  0  0  0  0  0  0  0  0  0
   15.6843   10.0083    3.8289 C   0  0  0  0  0  0  0  0  0  0  0  0
   17.4970   11.1071    4.5017 C   0  0  0  0  0  0  0  0  0  0  0  0
   16.9183   12.3474    4.2959 C   0  0  0  0  0  0  0  0  0  0  0  0
   15.6160   12.3563    3.7544 C   0  0  0  0  0  0  0  0  0  0  0  0
   17.8710   13.3192    4.7488 C   0  0  0  0  0  0  0  0  0  0  0  0
   19.0254   12.6345    5.1348 C   0  0  0  0  0  0  0  0  0  0  0  0
   20.1774   13.2869    5.5881 C   0  0  0  0  0  0  0  0  0  0  0  0
   20.1571   14.6886    5.6431 C   0  0  0  0  0  0  0  0  0  0  0  0
   19.0134   15.4119    5.2899 C   0  0  0  0  0  0  0  0  0  0  0  0
   17.8629   14.7246    4.8710 C   0  0  0  0  0  0  0  0  0  0  0  0
   14.9604    8.7239    3.5595 C   0  0  0  0  0  0  0  0  0  0  0  0
   19.3932   10.5373    5.1969 H   0  0  0  0  0  0  0  0  0  0  0  0
   14.9365   13.5192    3.4169 N   0  0  0  0  0  0  0  0  0  0  0  0
   14.5889   14.4043    4.5291 C   0  0  0  0  0  0  0  0  0  0  0  0
   13.9601   15.6867    3.9957 C   0  0  0  0  0  0  0  0  0  0  0  0
   14.9617   16.4386    3.1240 C   0  0  0  0  0  0  0  0  0  0  0  0
   15.7769   15.5098    2.2174 C   0  0  0  0  0  0  0  0  0  0  0  0
   15.1865   14.1058    2.1021 C   0  0  0  0  0  0  0  0  0  0  0  0
   18.2702   17.5369    4.2925 N   0  0  0  0  0  0  0  0  0  0  0  0
   18.9427   16.9024    5.2972 C   0  0  0  0  0  0  0  0  0  0  0  0
   19.4627   17.5654    6.1892 O   0  0  0  0  0  0  0  0  0  0  0  0
   18.2356   18.5471    4.3437 H   0  0  0  0  0  0  0  0  0  0  0  0
   17.8216   17.0867    3.5123 H   0  0  0  0  0  0  0  0  0  0  0  0
  3  5  1  0  0  0
  4  2  2  0  0  0
  5  6  2  0  0  0
  6  8  1  0  0  0
  7 16  1  0  0  0
  7  1  2  0  0  0
 17 16  1  0  0  0
 17 18  1  0  0  0
 18 19  1  0  0  0
 19 20  1  0  0  0
 20 21  1  0  0  0
 21 16  1  0  0  0
  9  3  1  0  0  0
  9 10  2  0  0  0
 11 12  2  0  0  0
 12 23  1  0  0  0
 13  8  2  0  0  0
 23 22  1  0  0  0
 14  4  1  0  0  0
  4  1  1  0  0  0
  5  2  1  0  0  0
  6  7  1  0  0  0
  8  9  1  0  0  0
 10 11  1  0  0  0
 12 13  1  0  0  0
 23 24  2  0  0  0
  3 15  1  0  0  0
 22 25  1  0  0  0
 22 26  1  0  0  0
M  END
> <minimizedAffinity>
-8.15058

$$$$
CHEMBL3716812


 26 29  0  0  0  0  0  0  0  0999 V2000
   14.1780   16.7778    5.3330 N   0  0  0  0  0  0  0  0  0  0  0  0
   15.1662   18.2488    6.9658 N   0  0  0  0  0  0  0  0  0  0  0  0
   17.3762   17.6073    7.6063 N   0  0  0  0  0  0  0  0  0  0  0  0
   14.1808   17.8680    6.1322 C   0  0  0  0  0  0  0  0  0  0  0  0
   16.2290   17.4387    6.8850 C   0  0  0  0  0  0  0  0  0  0  0  0
   16.3705   16.3138    6.0912 C   0  0  0  0  0  0  0  0  0  0  0  0
   15.2586   15.9512    5.3029 C   0  0  0  0  0  0  0  0  0  0  0  0
   17.7056   15.8342    6.3025 C   0  0  0  0  0  0  0  0  0  0  0  0
   18.2959   16.6378    7.2803 C   0  0  0  0  0  0  0  0  0  0  0  0
   19.5910   16.4171    7.7621 C   0  0  0  0  0  0  0  0  0  0  0  0
   20.3096   15.3334    7.2353 C   0  0  0  0  0  0  0  0  0  0  0  0
   19.7655   14.5190    6.2370 C   0  0  0  0  0  0  0  0  0  0  0  0
   18.4757   14.7883    5.7517 C   0  0  0  0  0  0  0  0  0  0  0  0
   12.9426   18.7125    6.1239 C   0  0  0  0  0  0  0  0  0  0  0  0
   17.5127   18.3539    8.2699 H   0  0  0  0  0  0  0  0  0  0  0  0
   15.2184   14.8063    4.5185 N   0  0  0  0  0  0  0  0  0  0  0  0
   14.9254   13.5571    5.2221 C   0  0  0  0  0  0  0  0  0  0  0  0
   14.7951   12.4149    4.2207 C   0  0  0  0  0  0  0  0  0  0  0  0
   13.6273   12.6779    3.2744 C   0  0  0  0  0  0  0  0  0  0  0  0
   13.5366   14.1430    2.8335 C   0  0  0  0  0  0  0  0  0  0  0  0
   14.8061   14.9416    3.1232 C   0  0  0  0  0  0  0  0  0  0  0  0
   21.7411   13.4853    5.1921 N   0  0  0  0  0  0  0  0  0  0  0  0
   20.4680   13.3346    5.6620 C   0  0  0  0  0  0  0  0  0  0  0  0
   19.9328   12.2314    5.6146 O   0  0  0  0  0  0  0  0  0  0  0  0
   22.1846   12.6538    4.8233 H   0  0  0  0  0  0  0  0  0  0  0  0
   22.2611   14.3466    5.1751 H   0  0  0  0  0  0  0  0  0  0  0  0
  3  5  1  0  0  0
  4  2  2  0  0  0
  5  6  2  0  0  0
  6  8  1  0  0  0
  7 16  1  0  0  0
  7  1  2  0  0  0
 17 16  1  0  0  0
 17 18  1  0  0  0
 18 19  1  0  0  0
 19 20  1  0  0  0
 20 21  1  0  0  0
 21 16  1  0  0  0
  9  3  1  0  0  0
  9 10  2  0  0  0
 11 12  2  0  0  0
 12 23  1  0  0  0
 13  8  2  0  0  0
 23 22  1  0  0  0
 14  4  1  0  0  0
  4  1  1  0  0  0
  5  2  1  0  0  0
  6  7  1  0  0  0
  8  9  1  0  0  0
 10 11  1  0  0  0
 12 13  1  0  0  0
 23 24  2  0  0  0
  3 15  1  0  0  0
 22 25  1  0  0  0
 22 26  1  0  0  0
M  END
> <minimizedAffinity>
-8.05392

$$$$
CHEMBL258838


 25 29  0  0  0  0  0  0  0  0999 V2000
   15.7778   13.5423    4.5902 C   0  0  0  0  0  0  0  0  0  0  0  0
   15.4430   14.0876    5.9994 C   0  0  0  0  0  0  0  0  0  0  0  0
   15.0588   15.5709    6.0000 C   0  0  0  0  0  0  0  0  0  0  0  0
   15.3871   15.8784    3.6211 C   0  0  0  0  0  0  0  0  0  0  0  0
   16.3273   14.6685    3.6996 C   0  0  0  0  0  0  0  0  0  0  0  0
   13.8510   17.2926    4.8219 C   0  0  0  0  0  0  0  0  0  0  0  0
   14.5276   12.8408    3.9456 C   0  0  0  0  0  0  0  0  0  0  0  0
   16.1967   11.2382    4.1222 C   0  0  0  0  0  0  0  0  0  0  0  0
   16.7581   12.3940    4.6672 C   0  0  0  0  0  0  0  0  0  0  0  0
   18.0409   12.3943    5.2078 C   0  0  0  0  0  0  0  0  0  0  0  0
   18.7578   11.1998    5.2327 C   0  0  0  0  0  0  0  0  0  0  0  0
   18.1834   10.0256    4.7365 C   0  0  0  0  0  0  0  0  0  0  0  0
   16.8971   10.0425    4.1886 C   0  0  0  0  0  0  0  0  0  0  0  0
   14.4328   15.9525    4.7360 N   0  0  0  0  0  0  0  0  0  0  0  0
   14.9151   11.4625    3.6041 N   0  0  0  0  0  0  0  0  0  0  0  0
   13.9903   10.6213    2.9963 C   0  0  0  0  0  0  0  0  0  0  0  0
   13.3079    8.4527    2.4460 C   0  0  0  0  0  0  0  0  0  0  0  0
   12.0824   10.1124    1.6520 C   0  0  0  0  0  0  0  0  0  0  0  0
   12.8678   11.0757    2.2693 C   0  0  0  0  0  0  0  0  0  0  0  0
   12.2399   12.3292    1.9988 C   0  0  0  0  0  0  0  0  0  0  0  0
   11.1427   12.0954    1.1964 C   0  0  0  0  0  0  0  0  0  0  0  0
   14.1492    9.2712    3.1071 N   0  0  0  0  0  0  0  0  0  0  0  0
   12.2554    8.7848    1.6819 N   0  0  0  0  0  0  0  0  0  0  0  0
   11.0686   10.7437    0.9851 N   0  0  0  0  0  0  0  0  0  0  0  0
   10.3674   10.2584    0.4431 H   0  0  0  0  0  0  0  0  0  0  0  0
  1  2  1  0  0  0
  1  7  1  0  0  0
  1  9  1  0  0  0
  2  3  1  0  0  0
  3 14  1  0  0  0
  4 14  1  0  0  0
  4  5  1  0  0  0
  5  1  1  0  0  0
  6 14  1  0  0  0
  7 15  1  0  0  0
 17 22  2  0  0  0
 18 23  2  0  0  0
 19 20  1  0  0  0
 19 16  2  0  0  0
 21 24  1  0  0  0
  9 10  2  0  0  0
 11 12  2  0  0  0
 13  8  2  0  0  0
 15 16  1  0  0  0
 15  8  1  0  0  0
 24 18  1  0  0  0
 16 22  1  0  0  0
 17 23  1  0  0  0
 18 19  1  0  0  0
 20 21  2  0  0  0
  8  9  1  0  0  0
 10 11  1  0  0  0
 12 13  1  0  0  0
 24 25  1  0  0  0
M  END
> <minimizedAffinity>
-9.54526

$$$$
CHEMBL258838


 25 29  0  0  0  0  0  0  0  0999 V2000
   14.6418   13.6091    3.2818 C   0  0  0  0  0  0  0  0  0  0  0  0
   15.2450   14.4787    2.1523 C   0  0  0  0  0  0  0  0  0  0  0  0
   15.8515   15.7923    2.6567 C   0  0  0  0  0  0  0  0  0  0  0  0
   15.2559   15.4272    4.9748 C   0  0  0  0  0  0  0  0  0  0  0  0
   14.1586   14.4985    4.4388 C   0  0  0  0  0  0  0  0  0  0  0  0
   17.1413   16.8180    4.4160 C   0  0  0  0  0  0  0  0  0  0  0  0
   15.6690   12.5223    3.7658 C   0  0  0  0  0  0  0  0  0  0  0  0
   13.8107   11.3945    2.9534 C   0  0  0  0  0  0  0  0  0  0  0  0
   13.5147   12.7451    2.7636 C   0  0  0  0  0  0  0  0  0  0  0  0
   12.3326   13.1516    2.1509 C   0  0  0  0  0  0  0  0  0  0  0  0
   11.4489   12.1788    1.6882 C   0  0  0  0  0  0  0  0  0  0  0  0
   11.7614   10.8230    1.8270 C   0  0  0  0  0  0  0  0  0  0  0  0
   12.9485   10.4299    2.4525 C   0  0  0  0  0  0  0  0  0  0  0  0
   16.3522   15.6502    4.0222 N   0  0  0  0  0  0  0  0  0  0  0  0
   15.0295   11.2049    3.6166 N   0  0  0  0  0  0  0  0  0  0  0  0
   15.7215   10.0604    3.9953 C   0  0  0  0  0  0  0  0  0  0  0  0
   15.7791    7.7332    4.2231 C   0  0  0  0  0  0  0  0  0  0  0  0
   17.5274    8.8505    4.9858 C   0  0  0  0  0  0  0  0  0  0  0  0
   17.0030   10.0726    4.5890 C   0  0  0  0  0  0  0  0  0  0  0  0
   18.0044   11.0464    4.8852 C   0  0  0  0  0  0  0  0  0  0  0  0
   19.0639   10.4024    5.4894 C   0  0  0  0  0  0  0  0  0  0  0  0
   15.1534    8.8397    3.7773 N   0  0  0  0  0  0  0  0  0  0  0  0
   16.9617    7.6442    4.8517 N   0  0  0  0  0  0  0  0  0  0  0  0
   18.7523    9.0697    5.5538 N   0  0  0  0  0  0  0  0  0  0  0  0
   19.3319    8.3355    5.9358 H   0  0  0  0  0  0  0  0  0  0  0  0
  1  2  1  0  0  0
  1  7  1  0  0  0
  1  9  1  0  0  0
  2  3  1  0  0  0
  3 14  1  0  0  0
  4 14  1  0  0  0
  4  5  1  0  0  0
  5  1  1  0  0  0
  6 14  1  0  0  0
  7 15  1  0  0  0
 17 22  2  0  0  0
 18 23  2  0  0  0
 19 20  1  0  0  0
 19 16  2  0  0  0
 21 24  1  0  0  0
  9 10  2  0  0  0
 11 12  2  0  0  0
 13  8  2  0  0  0
 15 16  1  0  0  0
 15  8  1  0  0  0
 24 18  1  0  0  0
 16 22  1  0  0  0
 17 23  1  0  0  0
 18 19  1  0  0  0
 20 21  2  0  0  0
  8  9  1  0  0  0
 10 11  1  0  0  0
 12 13  1  0  0  0
 24 25  1  0  0  0
M  END
> <minimizedAffinity>
-9.34738

$$$$
CHEMBL258838


 25 29  0  0  0  0  0  0  0  0999 V2000
   16.2811   16.0960    5.3958 C   0  0  0  0  0  0  0  0  0  0  0  0
   16.0577   16.6373    6.8285 C   0  0  0  0  0  0  0  0  0  0  0  0
   15.0649   17.8029    6.8883 C   0  0  0  0  0  0  0  0  0  0  0  0
   14.6905   17.8884    4.4979 C   0  0  0  0  0  0  0  0  0  0  0  0
   16.0619   17.2139    4.3636 C   0  0  0  0  0  0  0  0  0  0  0  0
   12.9919   18.6704    6.0160 C   0  0  0  0  0  0  0  0  0  0  0  0
   15.3655   14.8496    5.1152 C   0  0  0  0  0  0  0  0  0  0  0  0
   17.5660   14.1455    4.8979 C   0  0  0  0  0  0  0  0  0  0  0  0
   17.6597   15.4933    5.2481 C   0  0  0  0  0  0  0  0  0  0  0  0
   18.8924   16.1114    5.4389 C   0  0  0  0  0  0  0  0  0  0  0  0
   20.0513   15.3487    5.3101 C   0  0  0  0  0  0  0  0  0  0  0  0
   19.9653   13.9856    5.0109 C   0  0  0  0  0  0  0  0  0  0  0  0
   18.7203   13.3806    4.8134 C   0  0  0  0  0  0  0  0  0  0  0  0
   14.0738   17.7049    5.8190 N   0  0  0  0  0  0  0  0  0  0  0  0
   16.2395   13.7322    4.7225 N   0  0  0  0  0  0  0  0  0  0  0  0
   15.6767   12.5036    4.3970 C   0  0  0  0  0  0  0  0  0  0  0  0
   15.7808   10.1678    4.4632 C   0  0  0  0  0  0  0  0  0  0  0  0
   14.1119   11.0567    3.3181 C   0  0  0  0  0  0  0  0  0  0  0  0
   14.5024   12.3521    3.6270 C   0  0  0  0  0  0  0  0  0  0  0  0
   13.5068   13.2085    3.0664 C   0  0  0  0  0  0  0  0  0  0  0  0
   12.5887   12.4220    2.4023 C   0  0  0  0  0  0  0  0  0  0  0  0
   16.2701   11.3619    4.8496 N   0  0  0  0  0  0  0  0  0  0  0  0
   14.7149    9.9191    3.6862 N   0  0  0  0  0  0  0  0  0  0  0  0
   12.9783   11.1174    2.5550 N   0  0  0  0  0  0  0  0  0  0  0  0
   12.5046   10.3029    2.1901 H   0  0  0  0  0  0  0  0  0  0  0  0
  1  2  1  0  0  0
  1  7  1  0  0  0
  1  9  1  0  0  0
  2  3  1  0  0  0
  3 14  1  0  0  0
  4 14  1  0  0  0
  4  5  1  0  0  0
  5  1  1  0  0  0
  6 14  1  0  0  0
  7 15  1  0  0  0
 17 22  2  0  0  0
 18 23  2  0  0  0
 19 20  1  0  0  0
 19 16  2  0  0  0
 21 24  1  0  0  0
  9 10  2  0  0  0
 11 12  2  0  0  0
 13  8  2  0  0  0
 15 16  1  0  0  0
 15  8  1  0  0  0
 24 18  1  0  0  0
 16 22  1  0  0  0
 17 23  1  0  0  0
 18 19  1  0  0  0
 20 21  2  0  0  0
  8  9  1  0  0  0
 10 11  1  0  0  0
 12 13  1  0  0  0
 24 25  1  0  0  0
M  END
> <minimizedAffinity>
-9.22834

$$$$
CHEMBL258838


 25 29  0  0  0  0  0  0  0  0999 V2000
   15.3505   15.0267    4.7313 C   0  0  0  0  0  0  0  0  0  0  0  0
   15.0618   15.3548    6.2161 C   0  0  0  0  0  0  0  0  0  0  0  0
   14.6953   16.8238    6.4522 C   0  0  0  0  0  0  0  0  0  0  0  0
   14.9603   17.4854    4.1384 C   0  0  0  0  0  0  0  0  0  0  0  0
   15.8879   16.2707    4.0053 C   0  0  0  0  0  0  0  0  0  0  0  0
   13.4752   18.7128    5.5840 C   0  0  0  0  0  0  0  0  0  0  0  0
   14.0745   14.4402    4.0254 C   0  0  0  0  0  0  0  0  0  0  0  0
   15.7288   12.8170    3.9083 C   0  0  0  0  0  0  0  0  0  0  0  0
   16.3189   13.8727    4.6049 C   0  0  0  0  0  0  0  0  0  0  0  0
   17.6164   13.7817    5.1012 C   0  0  0  0  0  0  0  0  0  0  0  0
   18.3196   12.5919    4.9240 C   0  0  0  0  0  0  0  0  0  0  0  0
   17.7176   11.5107    4.2733 C   0  0  0  0  0  0  0  0  0  0  0  0
   16.4167   11.6199    3.7725 C   0  0  0  0  0  0  0  0  0  0  0  0
   14.0385   17.3969    5.2794 N   0  0  0  0  0  0  0  0  0  0  0  0
   14.4359   13.1266    3.4682 N   0  0  0  0  0  0  0  0  0  0  0  0
   13.4845   12.3940    2.7678 C   0  0  0  0  0  0  0  0  0  0  0  0
   11.5606   12.3559    1.4380 C   0  0  0  0  0  0  0  0  0  0  0  0
   12.3768   10.3987    2.0623 C   0  0  0  0  0  0  0  0  0  0  0  0
   13.4374   10.9827    2.7407 C   0  0  0  0  0  0  0  0  0  0  0  0
   14.2463    9.9043    3.2113 C   0  0  0  0  0  0  0  0  0  0  0  0
   13.6339    8.7210    2.8549 C   0  0  0  0  0  0  0  0  0  0  0  0
   12.5373   13.0577    2.0448 N   0  0  0  0  0  0  0  0  0  0  0  0
   11.3919   11.0246    1.4057 N   0  0  0  0  0  0  0  0  0  0  0  0
   12.4922    9.0398    2.1677 N   0  0  0  0  0  0  0  0  0  0  0  0
   11.8310    8.3889    1.7676 H   0  0  0  0  0  0  0  0  0  0  0  0
  1  2  1  0  0  0
  1  7  1  0  0  0
  1  9  1  0  0  0
  2  3  1  0  0  0
  3 14  1  0  0  0
  4 14  1  0  0  0
  4  5  1  0  0  0
  5  1  1  0  0  0
  6 14  1  0  0  0
  7 15  1  0  0  0
 17 22  2  0  0  0
 18 23  2  0  0  0
 19 20  1  0  0  0
 19 16  2  0  0  0
 21 24  1  0  0  0
  9 10  2  0  0  0
 11 12  2  0  0  0
 13  8  2  0  0  0
 15 16  1  0  0  0
 15  8  1  0  0  0
 24 18  1  0  0  0
 16 22  1  0  0  0
 17 23  1  0  0  0
 18 19  1  0  0  0
 20 21  2  0  0  0
  8  9  1  0  0  0
 10 11  1  0  0  0
 12 13  1  0  0  0
 24 25  1  0  0  0
M  END
> <minimizedAffinity>
-9.16973

$$$$
CHEMBL258838


 25 29  0  0  0  0  0  0  0  0999 V2000
   15.3248   12.2138    4.2001 C   0  0  0  0  0  0  0  0  0  0  0  0
   15.4584   13.2903    3.0961 C   0  0  0  0  0  0  0  0  0  0  0  0
   15.4881   14.7207    3.6445 C   0  0  0  0  0  0  0  0  0  0  0  0
   15.2082   14.0686    5.9593 C   0  0  0  0  0  0  0  0  0  0  0  0
   14.5713   12.7844    5.4125 C   0  0  0  0  0  0  0  0  0  0  0  0
   16.3176   16.1352    5.4115 C   0  0  0  0  0  0  0  0  0  0  0  0
   16.7320   11.6393    4.6003 C   0  0  0  0  0  0  0  0  0  0  0  0
   15.4733    9.8656    3.7909 C   0  0  0  0  0  0  0  0  0  0  0  0
   14.6347   10.9753    3.6751 C   0  0  0  0  0  0  0  0  0  0  0  0
   13.3630   10.8712    3.1184 C   0  0  0  0  0  0  0  0  0  0  0  0
   12.9420    9.6335    2.6363 C   0  0  0  0  0  0  0  0  0  0  0  0
   13.7952    8.5277    2.7005 C   0  0  0  0  0  0  0  0  0  0  0  0
   15.0666    8.6457    3.2703 C   0  0  0  0  0  0  0  0  0  0  0  0
   16.0667   14.7577    4.9859 N   0  0  0  0  0  0  0  0  0  0  0  0
   16.6907   10.1805    4.4073 N   0  0  0  0  0  0  0  0  0  0  0  0
   17.8123    9.4173    4.7096 C   0  0  0  0  0  0  0  0  0  0  0  0
   20.1415    9.2168    4.7892 C   0  0  0  0  0  0  0  0  0  0  0  0
   18.9698    7.4253    5.3410 C   0  0  0  0  0  0  0  0  0  0  0  0
   17.7594    8.0797    5.1599 C   0  0  0  0  0  0  0  0  0  0  0  0
   16.7469    7.1507    5.5482 C   0  0  0  0  0  0  0  0  0  0  0  0
   17.3619    5.9662    5.8962 C   0  0  0  0  0  0  0  0  0  0  0  0
   19.0493    9.9782    4.5840 N   0  0  0  0  0  0  0  0  0  0  0  0
   20.1976    7.9266    5.1553 N   0  0  0  0  0  0  0  0  0  0  0  0
   18.7124    6.1466    5.7528 N   0  0  0  0  0  0  0  0  0  0  0  0
   19.4325    5.4628    5.9396 H   0  0  0  0  0  0  0  0  0  0  0  0
  1  2  1  0  0  0
  1  7  1  0  0  0
  1  9  1  0  0  0
  2  3  1  0  0  0
  3 14  1  0  0  0
  4 14  1  0  0  0
  4  5  1  0  0  0
  5  1  1  0  0  0
  6 14  1  0  0  0
  7 15  1  0  0  0
 17 22  2  0  0  0
 18 23  2  0  0  0
 19 20  1  0  0  0
 19 16  2  0  0  0
 21 24  1  0  0  0
  9 10  2  0  0  0
 11 12  2  0  0  0
 13  8  2  0  0  0
 15 16  1  0  0  0
 15  8  1  0  0  0
 24 18  1  0  0  0
 16 22  1  0  0  0
 17 23  1  0  0  0
 18 19  1  0  0  0
 20 21  2  0  0  0
  8  9  1  0  0  0
 10 11  1  0  0  0
 12 13  1  0  0  0
 24 25  1  0  0  0
M  END
> <minimizedAffinity>
-8.93773

$$$$
CHEMBL258838


 25 29  0  0  0  0  0  0  0  0999 V2000
   15.3243   14.9544    4.4299 C   0  0  0  0  0  0  0  0  0  0  0  0
   16.1676   15.8939    3.5346 C   0  0  0  0  0  0  0  0  0  0  0  0
   17.0181   16.8887    4.3315 C   0  0  0  0  0  0  0  0  0  0  0  0
   16.2249   16.1600    6.4997 C   0  0  0  0  0  0  0  0  0  0  0  0
   14.9829   15.6488    5.7583 C   0  0  0  0  0  0  0  0  0  0  0  0
   18.3988   17.1749    6.2866 C   0  0  0  0  0  0  0  0  0  0  0  0
   16.0579   13.5828    4.6557 C   0  0  0  0  0  0  0  0  0  0  0  0
   14.0468   13.1173    3.5954 C   0  0  0  0  0  0  0  0  0  0  0  0
   14.0664   14.5073    3.7205 C   0  0  0  0  0  0  0  0  0  0  0  0
   13.0397   15.2980    3.2118 C   0  0  0  0  0  0  0  0  0  0  0  0
   11.9918   14.6799    2.5326 C   0  0  0  0  0  0  0  0  0  0  0  0
   11.9901   13.2928    2.3568 C   0  0  0  0  0  0  0  0  0  0  0  0
   13.0238   12.5108    2.8810 C   0  0  0  0  0  0  0  0  0  0  0  0
   17.3962   16.3352    5.6299 N   0  0  0  0  0  0  0  0  0  0  0  0
   15.1540   12.5126    4.2034 N   0  0  0  0  0  0  0  0  0  0  0  0
   15.5545   11.1860    4.3116 C   0  0  0  0  0  0  0  0  0  0  0  0
   17.0769    9.6096    5.1295 C   0  0  0  0  0  0  0  0  0  0  0  0
   15.4742    8.8522    3.8087 C   0  0  0  0  0  0  0  0  0  0  0  0
   14.9044   10.1098    3.6683 C   0  0  0  0  0  0  0  0  0  0  0  0
   13.7219    9.9223    2.8903 C   0  0  0  0  0  0  0  0  0  0  0  0
   13.6417    8.5893    2.5456 C   0  0  0  0  0  0  0  0  0  0  0  0
   16.6304   10.8800    5.0923 N   0  0  0  0  0  0  0  0  0  0  0  0
   16.5709    8.5330    4.5079 N   0  0  0  0  0  0  0  0  0  0  0  0
   14.7214    7.9552    3.1018 N   0  0  0  0  0  0  0  0  0  0  0  0
   14.9390    6.9707    3.0356 H   0  0  0  0  0  0  0  0  0  0  0  0
  1  2  1  0  0  0
  1  7  1  0  0  0
  1  9  1  0  0  0
  2  3  1  0  0  0
  3 14  1  0  0  0
  4 14  1  0  0  0
  4  5  1  0  0  0
  5  1  1  0  0  0
  6 14  1  0  0  0
  7 15  1  0  0  0
 17 22  2  0  0  0
 18 23  2  0  0  0
 19 20  1  0  0  0
 19 16  2  0  0  0
 21 24  1  0  0  0
  9 10  2  0  0  0
 11 12  2  0  0  0
 13  8  2  0  0  0
 15 16  1  0  0  0
 15  8  1  0  0  0
 24 18  1  0  0  0
 16 22  1  0  0  0
 17 23  1  0  0  0
 18 19  1  0  0  0
 20 21  2  0  0  0
  8  9  1  0  0  0
 10 11  1  0  0  0
 12 13  1  0  0  0
 24 25  1  0  0  0
M  END
> <minimizedAffinity>
-8.88344

$$$$
CHEMBL258838


 25 29  0  0  0  0  0  0  0  0999 V2000
   15.1352   16.0419    4.5310 C   0  0  0  0  0  0  0  0  0  0  0  0
   15.3480   17.2186    3.5483 C   0  0  0  0  0  0  0  0  0  0  0  0
   15.4396   18.5807    4.2442 C   0  0  0  0  0  0  0  0  0  0  0  0
   15.0767   17.7074    6.4730 C   0  0  0  0  0  0  0  0  0  0  0  0
   14.3863   16.5230    5.7843 C   0  0  0  0  0  0  0  0  0  0  0  0
   16.3027   19.7574    6.1629 C   0  0  0  0  0  0  0  0  0  0  0  0
   16.5020   15.3544    4.8911 C   0  0  0  0  0  0  0  0  0  0  0  0
   15.1712   13.7444    3.8801 C   0  0  0  0  0  0  0  0  0  0  0  0
   14.3937   14.9035    3.8679 C   0  0  0  0  0  0  0  0  0  0  0  0
   13.1306   14.9260    3.2831 C   0  0  0  0  0  0  0  0  0  0  0  0
   12.6567   13.7695    2.6671 C   0  0  0  0  0  0  0  0  0  0  0  0
   13.4502   12.6189    2.6285 C   0  0  0  0  0  0  0  0  0  0  0  0
   14.7134   12.6087    3.2279 C   0  0  0  0  0  0  0  0  0  0  0  0
   15.9903   18.4470    5.5911 N   0  0  0  0  0  0  0  0  0  0  0  0
   16.3896   13.9280    4.5455 N   0  0  0  0  0  0  0  0  0  0  0  0
   17.4637   13.0784    4.7840 C   0  0  0  0  0  0  0  0  0  0  0  0
   18.2692   10.9093    5.1269 C   0  0  0  0  0  0  0  0  0  0  0  0
   19.7361   12.5539    5.3011 C   0  0  0  0  0  0  0  0  0  0  0  0
   18.7887   13.5203    4.9937 C   0  0  0  0  0  0  0  0  0  0  0  0
   19.4940   14.7606    4.9385 C   0  0  0  0  0  0  0  0  0  0  0  0
   20.8133   14.5188    5.2600 C   0  0  0  0  0  0  0  0  0  0  0  0
   17.2507   11.7314    4.8079 N   0  0  0  0  0  0  0  0  0  0  0  0
   19.5421   11.2329    5.4039 N   0  0  0  0  0  0  0  0  0  0  0  0
   20.9406   13.1741    5.4895 N   0  0  0  0  0  0  0  0  0  0  0  0
   21.7894   12.6852    5.7378 H   0  0  0  0  0  0  0  0  0  0  0  0
  1  2  1  0  0  0
  1  7  1  0  0  0
  1  9  1  0  0  0
  2  3  1  0  0  0
  3 14  1  0  0  0
  4 14  1  0  0  0
  4  5  1  0  0  0
  5  1  1  0  0  0
  6 14  1  0  0  0
  7 15  1  0  0  0
 17 22  2  0  0  0
 18 23  2  0  0  0
 19 20  1  0  0  0
 19 16  2  0  0  0
 21 24  1  0  0  0
  9 10  2  0  0  0
 11 12  2  0  0  0
 13  8  2  0  0  0
 15 16  1  0  0  0
 15  8  1  0  0  0
 24 18  1  0  0  0
 16 22  1  0  0  0
 17 23  1  0  0  0
 18 19  1  0  0  0
 20 21  2  0  0  0
  8  9  1  0  0  0
 10 11  1  0  0  0
 12 13  1  0  0  0
 24 25  1  0  0  0
M  END
> <minimizedAffinity>
-8.83938

$$$$
CHEMBL258838


 25 29  0  0  0  0  0  0  0  0999 V2000
   16.6515   13.5359    4.6899 C   0  0  0  0  0  0  0  0  0  0  0  0
   16.0782   13.8389    3.2845 C   0  0  0  0  0  0  0  0  0  0  0  0
   15.0215   14.9485    3.2872 C   0  0  0  0  0  0  0  0  0  0  0  0
   15.0739   15.2887    5.6836 C   0  0  0  0  0  0  0  0  0  0  0  0
   15.6061   13.8525    5.7716 C   0  0  0  0  0  0  0  0  0  0  0  0
   14.4124   17.0853    4.2221 C   0  0  0  0  0  0  0  0  0  0  0  0
   17.9974   14.3119    4.9287 C   0  0  0  0  0  0  0  0  0  0  0  0
   18.4756   12.0466    5.0877 C   0  0  0  0  0  0  0  0  0  0  0  0
   17.1121   12.0998    4.7942 C   0  0  0  0  0  0  0  0  0  0  0  0
   16.3611   10.9415    4.6142 C   0  0  0  0  0  0  0  0  0  0  0  0
   17.0029    9.7074    4.6956 C   0  0  0  0  0  0  0  0  0  0  0  0
   18.3787    9.6460    4.9374 C   0  0  0  0  0  0  0  0  0  0  0  0
   19.1183   10.8177    5.1247 C   0  0  0  0  0  0  0  0  0  0  0  0
   15.2665   15.9055    4.3639 N   0  0  0  0  0  0  0  0  0  0  0  0
   19.0323   13.3197    5.2623 N   0  0  0  0  0  0  0  0  0  0  0  0
   20.3254   13.7460    5.5422 C   0  0  0  0  0  0  0  0  0  0  0  0
   22.3716   14.5840    4.7791 C   0  0  0  0  0  0  0  0  0  0  0  0
   22.2397   14.0884    6.9294 C   0  0  0  0  0  0  0  0  0  0  0  0
   20.9105   13.7029    6.8269 C   0  0  0  0  0  0  0  0  0  0  0  0
   20.4867   13.3913    8.1544 C   0  0  0  0  0  0  0  0  0  0  0  0
   21.5677   13.5446    8.9971 C   0  0  0  0  0  0  0  0  0  0  0  0
   21.0893   14.2532    4.5323 N   0  0  0  0  0  0  0  0  0  0  0  0
   23.0363   14.5207    5.9436 N   0  0  0  0  0  0  0  0  0  0  0  0
   22.6284   13.9570    8.2343 N   0  0  0  0  0  0  0  0  0  0  0  0
   23.5609   14.1633    8.5643 H   0  0  0  0  0  0  0  0  0  0  0  0
  1  2  1  0  0  0
  1  7  1  0  0  0
  1  9  1  0  0  0
  2  3  1  0  0  0
  3 14  1  0  0  0
  4 14  1  0  0  0
  4  5  1  0  0  0
  5  1  1  0  0  0
  6 14  1  0  0  0
  7 15  1  0  0  0
 17 22  2  0  0  0
 18 23  2  0  0  0
 19 20  1  0  0  0
 19 16  2  0  0  0
 21 24  1  0  0  0
  9 10  2  0  0  0
 11 12  2  0  0  0
 13  8  2  0  0  0
 15 16  1  0  0  0
 15  8  1  0  0  0
 24 18  1  0  0  0
 16 22  1  0  0  0
 17 23  1  0  0  0
 18 19  1  0  0  0
 20 21  2  0  0  0
  8  9  1  0  0  0
 10 11  1  0  0  0
 12 13  1  0  0  0
 24 25  1  0  0  0
M  END
> <minimizedAffinity>
-8.81237

$$$$
CHEMBL258838


 25 29  0  0  0  0  0  0  0  0999 V2000
   16.1956   15.3043    5.3078 C   0  0  0  0  0  0  0  0  0  0  0  0
   16.1268   16.2319    4.0708 C   0  0  0  0  0  0  0  0  0  0  0  0
   15.4789   17.5888    4.3658 C   0  0  0  0  0  0  0  0  0  0  0  0
   14.9962   17.0957    6.6865 C   0  0  0  0  0  0  0  0  0  0  0  0
   15.0424   15.6186    6.2745 C   0  0  0  0  0  0  0  0  0  0  0  0
   15.2977   19.3764    5.9728 C   0  0  0  0  0  0  0  0  0  0  0  0
   17.5970   15.4072    6.0121 C   0  0  0  0  0  0  0  0  0  0  0  0
   17.3326   13.2042    5.3319 C   0  0  0  0  0  0  0  0  0  0  0  0
   16.1718   13.8484    4.9011 C   0  0  0  0  0  0  0  0  0  0  0  0
   15.1900   13.1736    4.1809 C   0  0  0  0  0  0  0  0  0  0  0  0
   15.3979   11.8344    3.8573 C   0  0  0  0  0  0  0  0  0  0  0  0
   16.5812   11.1951    4.2394 C   0  0  0  0  0  0  0  0  0  0  0  0
   17.5545   11.8834    4.9701 C   0  0  0  0  0  0  0  0  0  0  0  0
   15.7008   17.9867    5.7543 N   0  0  0  0  0  0  0  0  0  0  0  0
   18.1707   14.0526    6.0660 N   0  0  0  0  0  0  0  0  0  0  0  0
   19.4106   13.8569    6.6632 C   0  0  0  0  0  0  0  0  0  0  0  0
   20.6580   13.2899    8.5589 C   0  0  0  0  0  0  0  0  0  0  0  0
   21.7957   13.9292    6.7746 C   0  0  0  0  0  0  0  0  0  0  0  0
   20.6443   14.0933    6.0174 C   0  0  0  0  0  0  0  0  0  0  0  0
   21.0824   14.4402    4.7035 C   0  0  0  0  0  0  0  0  0  0  0  0
   22.4590   14.5253    4.7186 C   0  0  0  0  0  0  0  0  0  0  0  0
   19.4632   13.3959    7.9458 N   0  0  0  0  0  0  0  0  0  0  0  0
   21.8753   13.5490    8.0562 N   0  0  0  0  0  0  0  0  0  0  0  0
   22.8756   14.2236    5.9884 N   0  0  0  0  0  0  0  0  0  0  0  0
   23.8313   14.1923    6.3151 H   0  0  0  0  0  0  0  0  0  0  0  0
  1  2  1  0  0  0
  1  7  1  0  0  0
  1  9  1  0  0  0
  2  3  1  0  0  0
  3 14  1  0  0  0
  4 14  1  0  0  0
  4  5  1  0  0  0
  5  1  1  0  0  0
  6 14  1  0  0  0
  7 15  1  0  0  0
 17 22  2  0  0  0
 18 23  2  0  0  0
 19 20  1  0  0  0
 19 16  2  0  0  0
 21 24  1  0  0  0
  9 10  2  0  0  0
 11 12  2  0  0  0
 13  8  2  0  0  0
 15 16  1  0  0  0
 15  8  1  0  0  0
 24 18  1  0  0  0
 16 22  1  0  0  0
 17 23  1  0  0  0
 18 19  1  0  0  0
 20 21  2  0  0  0
  8  9  1  0  0  0
 10 11  1  0  0  0
 12 13  1  0  0  0
 24 25  1  0  0  0
M  END
> <minimizedAffinity>
-8.63202

$$$$
CHEMBL4448573


 32 36  0  0  0  0  0  0  0  0999 V2000
   18.6021   17.4875    5.0080 C   0  0  0  0  0  0  0  0  0  0  0  0
   18.8827   16.9214    6.4024 C   0  0  0  0  0  0  0  0  0  0  0  0
   17.8507   15.8463    6.8226 C   0  0  0  0  0  0  0  0  0  0  0  0
   16.4073   16.3780    6.5990 C   0  0  0  0  0  0  0  0  0  0  0  0
   17.1807   18.0371    4.9447 C   0  0  0  0  0  0  0  0  0  0  0  0
   16.2548   16.9627    5.2558 N   0  0  0  0  0  0  0  0  0  0  0  0
   15.2321   16.5343    4.4306 C   0  0  0  0  0  0  0  0  0  0  0  0
   12.9036   16.4162    4.0877 C   0  0  0  0  0  0  0  0  0  0  0  0
   14.1758   15.4086    2.5957 C   0  0  0  0  0  0  0  0  0  0  0  0
   15.3565   15.7571    3.2460 C   0  0  0  0  0  0  0  0  0  0  0  0
   16.3969   15.1381    2.4810 C   0  0  0  0  0  0  0  0  0  0  0  0
   15.8312   14.5056    1.3934 C   0  0  0  0  0  0  0  0  0  0  0  0
   13.9539   16.8356    4.8132 N   0  0  0  0  0  0  0  0  0  0  0  0
   12.9211   15.7019    2.9591 N   0  0  0  0  0  0  0  0  0  0  0  0
   14.4786   14.6778    1.4808 N   0  0  0  0  0  0  0  0  0  0  0  0
   13.7829   14.3160    0.8452 H   0  0  0  0  0  0  0  0  0  0  0  0
   18.1847   14.4765    6.2278 C   0  0  0  0  0  0  0  0  0  0  0  0
   17.1714   13.7747    5.5403 C   0  0  0  0  0  0  0  0  0  0  0  0
   17.3987   12.5163    4.9761 C   0  0  0  0  0  0  0  0  0  0  0  0
   18.6743   11.9538    5.0784 C   0  0  0  0  0  0  0  0  0  0  0  0
   19.6960   12.6377    5.7322 C   0  0  0  0  0  0  0  0  0  0  0  0
   19.4510   13.8878    6.2995 C   0  0  0  0  0  0  0  0  0  0  0  0
   15.0455   11.9476    4.3164 C   0  0  0  0  0  0  0  0  0  0  0  0
   16.4170   11.7584    4.2991 N   0  0  0  0  0  0  0  0  0  0  0  0
   14.4578   12.8247    4.9437 O   0  0  0  0  0  0  0  0  0  0  0  0
   16.7867   10.9948    3.7581 H   0  0  0  0  0  0  0  0  0  0  0  0
   14.2151   10.9951    3.5006 C   0  0  0  0  0  0  0  0  0  0  0  0
   14.5071    9.6327    3.3358 C   0  0  0  0  0  0  0  0  0  0  0  0
   13.6775    8.8192    2.5549 C   0  0  0  0  0  0  0  0  0  0  0  0
   12.5519    9.3530    1.9318 C   0  0  0  0  0  0  0  0  0  0  0  0
   12.2493   10.7021    2.0863 C   0  0  0  0  0  0  0  0  0  0  0  0
   13.0747   11.5160    2.8651 C   0  0  0  0  0  0  0  0  0  0  0  0
  1  2  1  0  0  0
  2  3  1  0  0  0
  3  4  1  0  0  0
  3 17  1  0  0  0
  4  6  1  0  0  0
  5  6  1  0  0  0
  5  1  1  0  0  0
  8 13  2  0  0  0
  9 14  2  0  0  0
 10 11  1  0  0  0
 10  7  2  0  0  0
 12 15  1  0  0  0
 18 19  2  0  0  0
 19 24  1  0  0  0
 20 21  2  0  0  0
 22 17  2  0  0  0
 23 27  1  0  0  0
 28 29  2  0  0  0
 30 31  2  0  0  0
 32 27  2  0  0  0
  6  7  1  0  0  0
 15  9  1  0  0  0
 24 23  1  0  0  0
  7 13  1  0  0  0
  8 14  1  0  0  0
  9 10  1  0  0  0
 11 12  2  0  0  0
 17 18  1  0  0  0
 19 20  1  0  0  0
 21 22  1  0  0  0
 23 25  2  0  0  0
 27 28  1  0  0  0
 29 30  1  0  0  0
 31 32  1  0  0  0
 15 16  1  0  0  0
 24 26  1  0  0  0
M  END
> <minimizedAffinity>
-9.28580

$$$$
CHEMBL4448573


 32 36  0  0  0  0  0  0  0  0999 V2000
   19.9560   15.8396    4.9741 C   0  0  0  0  0  0  0  0  0  0  0  0
   20.1980   14.9664    6.2079 C   0  0  0  0  0  0  0  0  0  0  0  0
   18.9030   14.2840    6.7124 C   0  0  0  0  0  0  0  0  0  0  0  0
   17.7678   15.3362    6.8550 C   0  0  0  0  0  0  0  0  0  0  0  0
   18.8719   16.8710    5.2697 C   0  0  0  0  0  0  0  0  0  0  0  0
   17.6569   16.1704    5.6463 N   0  0  0  0  0  0  0  0  0  0  0  0
   16.4370   16.3021    5.0102 C   0  0  0  0  0  0  0  0  0  0  0  0
   15.1709   15.8443    3.0760 C   0  0  0  0  0  0  0  0  0  0  0  0
   14.1906   17.0534    4.6371 C   0  0  0  0  0  0  0  0  0  0  0  0
   15.3047   17.0286    5.4717 C   0  0  0  0  0  0  0  0  0  0  0  0
   14.9439   17.8405    6.5948 C   0  0  0  0  0  0  0  0  0  0  0  0
   13.6418   18.2666    6.4339 C   0  0  0  0  0  0  0  0  0  0  0  0
   16.3106   15.7232    3.7773 N   0  0  0  0  0  0  0  0  0  0  0  0
   14.0551   16.4870    3.4316 N   0  0  0  0  0  0  0  0  0  0  0  0
   13.2000   17.7809    5.2356 N   0  0  0  0  0  0  0  0  0  0  0  0
   12.2929   17.9351    4.8206 H   0  0  0  0  0  0  0  0  0  0  0  0
   18.5799   13.0196    5.9132 C   0  0  0  0  0  0  0  0  0  0  0  0
   17.3697   12.9708    5.1888 C   0  0  0  0  0  0  0  0  0  0  0  0
   17.0024   11.8483    4.4413 C   0  0  0  0  0  0  0  0  0  0  0  0
   17.8742   10.7566    4.3948 C   0  0  0  0  0  0  0  0  0  0  0  0
   19.0844   10.7910    5.0830 C   0  0  0  0  0  0  0  0  0  0  0  0
   19.4319   11.9138    5.8333 C   0  0  0  0  0  0  0  0  0  0  0  0
   14.5658   12.2883    4.0352 C   0  0  0  0  0  0  0  0  0  0  0  0
   15.7942   11.7343    3.7176 N   0  0  0  0  0  0  0  0  0  0  0  0
   14.3326   12.9786    5.0239 O   0  0  0  0  0  0  0  0  0  0  0  0
   15.8637   11.1722    2.8859 H   0  0  0  0  0  0  0  0  0  0  0  0
   13.4289   12.0150    3.0890 C   0  0  0  0  0  0  0  0  0  0  0  0
   12.6033   13.0062    2.5374 C   0  0  0  0  0  0  0  0  0  0  0  0
   11.5650   12.6593    1.6648 C   0  0  0  0  0  0  0  0  0  0  0  0
   11.3390   11.3252    1.3340 C   0  0  0  0  0  0  0  0  0  0  0  0
   12.1496   10.3313    1.8728 C   0  0  0  0  0  0  0  0  0  0  0  0
   13.1865   10.6744    2.7431 C   0  0  0  0  0  0  0  0  0  0  0  0
  1  2  1  0  0  0
  2  3  1  0  0  0
  3  4  1  0  0  0
  3 17  1  0  0  0
  4  6  1  0  0  0
  5  6  1  0  0  0
  5  1  1  0  0  0
  8 13  2  0  0  0
  9 14  2  0  0  0
 10 11  1  0  0  0
 10  7  2  0  0  0
 12 15  1  0  0  0
 18 19  2  0  0  0
 19 24  1  0  0  0
 20 21  2  0  0  0
 22 17  2  0  0  0
 23 27  1  0  0  0
 28 29  2  0  0  0
 30 31  2  0  0  0
 32 27  2  0  0  0
  6  7  1  0  0  0
 15  9  1  0  0  0
 24 23  1  0  0  0
  7 13  1  0  0  0
  8 14  1  0  0  0
  9 10  1  0  0  0
 11 12  2  0  0  0
 17 18  1  0  0  0
 19 20  1  0  0  0
 21 22  1  0  0  0
 23 25  2  0  0  0
 27 28  1  0  0  0
 29 30  1  0  0  0
 31 32  1  0  0  0
 15 16  1  0  0  0
 24 26  1  0  0  0
M  END
> <minimizedAffinity>
-9.09175

$$$$
CHEMBL4448573


 32 36  0  0  0  0  0  0  0  0999 V2000
   15.8255   16.5458    3.5045 C   0  0  0  0  0  0  0  0  0  0  0  0
   16.3157   16.9818    4.8876 C   0  0  0  0  0  0  0  0  0  0  0  0
   16.4489   15.7922    5.8697 C   0  0  0  0  0  0  0  0  0  0  0  0
   15.1441   14.9476    5.8627 C   0  0  0  0  0  0  0  0  0  0  0  0
   14.5068   15.7902    3.6330 C   0  0  0  0  0  0  0  0  0  0  0  0
   14.7163   14.6356    4.4883 N   0  0  0  0  0  0  0  0  0  0  0  0
   14.4684   13.3253    4.1251 C   0  0  0  0  0  0  0  0  0  0  0  0
   15.1964   11.0864    4.2309 C   0  0  0  0  0  0  0  0  0  0  0  0
   13.3985   11.4861    3.0195 C   0  0  0  0  0  0  0  0  0  0  0  0
   13.4281   12.8539    3.2777 C   0  0  0  0  0  0  0  0  0  0  0  0
   12.3453   13.3979    2.5146 C   0  0  0  0  0  0  0  0  0  0  0  0
   11.6813   12.3641    1.8874 C   0  0  0  0  0  0  0  0  0  0  0  0
   15.3439   12.3764    4.5770 N   0  0  0  0  0  0  0  0  0  0  0  0
   14.2471   10.5490    3.4599 N   0  0  0  0  0  0  0  0  0  0  0  0
   12.3377   11.2082    2.2033 N   0  0  0  0  0  0  0  0  0  0  0  0
   12.1094   10.2788    1.8824 H   0  0  0  0  0  0  0  0  0  0  0  0
   17.7647   15.0368    5.6702 C   0  0  0  0  0  0  0  0  0  0  0  0
   17.7907   13.6489    5.9250 C   0  0  0  0  0  0  0  0  0  0  0  0
   18.9561   12.8927    5.7719 C   0  0  0  0  0  0  0  0  0  0  0  0
   20.1188   13.5309    5.3305 C   0  0  0  0  0  0  0  0  0  0  0  0
   20.1115   14.8951    5.0508 C   0  0  0  0  0  0  0  0  0  0  0  0
   18.9436   15.6383    5.2188 C   0  0  0  0  0  0  0  0  0  0  0  0
   18.7897   10.4645    5.1620 C   0  0  0  0  0  0  0  0  0  0  0  0
   19.0466   11.5075    6.0355 N   0  0  0  0  0  0  0  0  0  0  0  0
   18.4300   10.5887    3.9944 O   0  0  0  0  0  0  0  0  0  0  0  0
   19.3227   11.2846    6.9771 H   0  0  0  0  0  0  0  0  0  0  0  0
   18.9645    9.0690    5.6955 C   0  0  0  0  0  0  0  0  0  0  0  0
   19.9564    8.1756    5.2636 C   0  0  0  0  0  0  0  0  0  0  0  0
   20.0437    6.8922    5.8158 C   0  0  0  0  0  0  0  0  0  0  0  0
   19.1463    6.4866    6.8009 C   0  0  0  0  0  0  0  0  0  0  0  0
   18.1576    7.3615    7.2395 C   0  0  0  0  0  0  0  0  0  0  0  0
   18.0683    8.6427    6.6909 C   0  0  0  0  0  0  0  0  0  0  0  0
  1  2  1  0  0  0
  2  3  1  0  0  0
  3  4  1  0  0  0
  3 17  1  0  0  0
  4  6  1  0  0  0
  5  6  1  0  0  0
  5  1  1  0  0  0
  8 13  2  0  0  0
  9 14  2  0  0  0
 10 11  1  0  0  0
 10  7  2  0  0  0
 12 15  1  0  0  0
 18 19  2  0  0  0
 19 24  1  0  0  0
 20 21  2  0  0  0
 22 17  2  0  0  0
 23 27  1  0  0  0
 28 29  2  0  0  0
 30 31  2  0  0  0
 32 27  2  0  0  0
  6  7  1  0  0  0
 15  9  1  0  0  0
 24 23  1  0  0  0
  7 13  1  0  0  0
  8 14  1  0  0  0
  9 10  1  0  0  0
 11 12  2  0  0  0
 17 18  1  0  0  0
 19 20  1  0  0  0
 21 22  1  0  0  0
 23 25  2  0  0  0
 27 28  1  0  0  0
 29 30  1  0  0  0
 31 32  1  0  0  0
 15 16  1  0  0  0
 24 26  1  0  0  0
M  END
> <minimizedAffinity>
-8.75162

$$$$
CHEMBL4448573


 32 36  0  0  0  0  0  0  0  0999 V2000
   13.9514   16.1496    4.3127 C   0  0  0  0  0  0  0  0  0  0  0  0
   13.6042   15.8775    2.8467 C   0  0  0  0  0  0  0  0  0  0  0  0
   14.4850   14.7648    2.2274 C   0  0  0  0  0  0  0  0  0  0  0  0
   15.9855   15.0530    2.5128 C   0  0  0  0  0  0  0  0  0  0  0  0
   15.4333   16.4862    4.4438 C   0  0  0  0  0  0  0  0  0  0  0  0
   16.2085   15.3692    3.9339 N   0  0  0  0  0  0  0  0  0  0  0  0
   17.1606   14.6717    4.6532 C   0  0  0  0  0  0  0  0  0  0  0  0
   18.4144   12.6852    4.8414 C   0  0  0  0  0  0  0  0  0  0  0  0
   18.6761   14.1761    6.4440 C   0  0  0  0  0  0  0  0  0  0  0  0
   17.7657   15.0649    5.8787 C   0  0  0  0  0  0  0  0  0  0  0  0
   17.6900   16.1554    6.8037 C   0  0  0  0  0  0  0  0  0  0  0  0
   18.5753   15.9236    7.8360 C   0  0  0  0  0  0  0  0  0  0  0  0
   17.5277   13.4437    4.1752 N   0  0  0  0  0  0  0  0  0  0  0  0
   19.0455   12.9749    5.9826 N   0  0  0  0  0  0  0  0  0  0  0  0
   19.1644   14.7132    7.6024 N   0  0  0  0  0  0  0  0  0  0  0  0
   19.8450   14.2515    8.1877 H   0  0  0  0  0  0  0  0  0  0  0  0
   13.9677   13.3689    2.5819 C   0  0  0  0  0  0  0  0  0  0  0  0
   14.8258   12.4873    3.2735 C   0  0  0  0  0  0  0  0  0  0  0  0
   14.4271   11.1948    3.6255 C   0  0  0  0  0  0  0  0  0  0  0  0
   13.1324   10.7788    3.3019 C   0  0  0  0  0  0  0  0  0  0  0  0
   12.2601   11.6392    2.6399 C   0  0  0  0  0  0  0  0  0  0  0  0
   12.6762   12.9221    2.2856 C   0  0  0  0  0  0  0  0  0  0  0  0
   15.6439    9.0120    3.8495 C   0  0  0  0  0  0  0  0  0  0  0  0
   15.2507   10.2623    4.2953 N   0  0  0  0  0  0  0  0  0  0  0  0
   15.3240    8.5080    2.7762 O   0  0  0  0  0  0  0  0  0  0  0  0
   15.5642   10.5663    5.2019 H   0  0  0  0  0  0  0  0  0  0  0  0
   16.5324    8.2108    4.7613 C   0  0  0  0  0  0  0  0  0  0  0  0
   16.6669    6.8152    4.7087 C   0  0  0  0  0  0  0  0  0  0  0  0
   17.5174    6.1509    5.6004 C   0  0  0  0  0  0  0  0  0  0  0  0
   18.2404    6.8678    6.5509 C   0  0  0  0  0  0  0  0  0  0  0  0
   18.1176    8.2521    6.6149 C   0  0  0  0  0  0  0  0  0  0  0  0
   17.2703    8.9177    5.7264 C   0  0  0  0  0  0  0  0  0  0  0  0
  1  2  1  0  0  0
  2  3  1  0  0  0
  3  4  1  0  0  0
  3 17  1  0  0  0
  4  6  1  0  0  0
  5  6  1  0  0  0
  5  1  1  0  0  0
  8 13  2  0  0  0
  9 14  2  0  0  0
 10 11  1  0  0  0
 10  7  2  0  0  0
 12 15  1  0  0  0
 18 19  2  0  0  0
 19 24  1  0  0  0
 20 21  2  0  0  0
 22 17  2  0  0  0
 23 27  1  0  0  0
 28 29  2  0  0  0
 30 31  2  0  0  0
 32 27  2  0  0  0
  6  7  1  0  0  0
 15  9  1  0  0  0
 24 23  1  0  0  0
  7 13  1  0  0  0
  8 14  1  0  0  0
  9 10  1  0  0  0
 11 12  2  0  0  0
 17 18  1  0  0  0
 19 20  1  0  0  0
 21 22  1  0  0  0
 23 25  2  0  0  0
 27 28  1  0  0  0
 29 30  1  0  0  0
 31 32  1  0  0  0
 15 16  1  0  0  0
 24 26  1  0  0  0
M  END
> <minimizedAffinity>
-8.72083

$$$$
CHEMBL4448573


 32 36  0  0  0  0  0  0  0  0999 V2000
   14.1399   10.6176    2.5732 C   0  0  0  0  0  0  0  0  0  0  0  0
   13.1152   11.6364    3.0790 C   0  0  0  0  0  0  0  0  0  0  0  0
   13.7517   12.7098    3.9955 C   0  0  0  0  0  0  0  0  0  0  0  0
   14.6105   12.0278    5.0970 C   0  0  0  0  0  0  0  0  0  0  0  0
   14.8613    9.9740    3.7529 C   0  0  0  0  0  0  0  0  0  0  0  0
   15.5153   11.0183    4.5213 N   0  0  0  0  0  0  0  0  0  0  0  0
   16.8685   11.0687    4.7982 C   0  0  0  0  0  0  0  0  0  0  0  0
   18.7966   12.4169    4.9340 C   0  0  0  0  0  0  0  0  0  0  0  0
   19.0684   10.2610    5.3058 C   0  0  0  0  0  0  0  0  0  0  0  0
   17.7222    9.9719    5.0995 C   0  0  0  0  0  0  0  0  0  0  0  0
   17.6264    8.5484    5.2226 C   0  0  0  0  0  0  0  0  0  0  0  0
   18.8695    8.0468    5.5485 C   0  0  0  0  0  0  0  0  0  0  0  0
   17.4755   12.2921    4.7223 N   0  0  0  0  0  0  0  0  0  0  0  0
   19.6714   11.4544    5.2383 N   0  0  0  0  0  0  0  0  0  0  0  0
   19.7355    9.1027    5.5918 N   0  0  0  0  0  0  0  0  0  0  0  0
   20.7257    9.0622    5.7838 H   0  0  0  0  0  0  0  0  0  0  0  0
   14.4199   13.8231    3.1856 C   0  0  0  0  0  0  0  0  0  0  0  0
   14.9482   14.9349    3.8759 C   0  0  0  0  0  0  0  0  0  0  0  0
   15.5667   15.9936    3.2050 C   0  0  0  0  0  0  0  0  0  0  0  0
   15.6833   15.9315    1.8134 C   0  0  0  0  0  0  0  0  0  0  0  0
   15.1899   14.8338    1.1129 C   0  0  0  0  0  0  0  0  0  0  0  0
   14.5656   13.7902    1.7953 C   0  0  0  0  0  0  0  0  0  0  0  0
   15.3865   18.1435    4.4862 C   0  0  0  0  0  0  0  0  0  0  0  0
   16.0910   17.1413    3.8410 N   0  0  0  0  0  0  0  0  0  0  0  0
   14.1648   18.1902    4.6030 O   0  0  0  0  0  0  0  0  0  0  0  0
   17.0933   17.2160    3.7950 H   0  0  0  0  0  0  0  0  0  0  0  0
   16.1901   19.2640    5.0871 C   0  0  0  0  0  0  0  0  0  0  0  0
   16.1894   20.5829    4.6085 C   0  0  0  0  0  0  0  0  0  0  0  0
   16.9719   21.5632    5.2303 C   0  0  0  0  0  0  0  0  0  0  0  0
   17.7610   21.2405    6.3318 C   0  0  0  0  0  0  0  0  0  0  0  0
   17.7718   19.9371    6.8179 C   0  0  0  0  0  0  0  0  0  0  0  0
   16.9918   18.9571    6.2001 C   0  0  0  0  0  0  0  0  0  0  0  0
  1  2  1  0  0  0
  2  3  1  0  0  0
  3  4  1  0  0  0
  3 17  1  0  0  0
  4  6  1  0  0  0
  5  6  1  0  0  0
  5  1  1  0  0  0
  8 13  2  0  0  0
  9 14  2  0  0  0
 10 11  1  0  0  0
 10  7  2  0  0  0
 12 15  1  0  0  0
 18 19  2  0  0  0
 19 24  1  0  0  0
 20 21  2  0  0  0
 22 17  2  0  0  0
 23 27  1  0  0  0
 28 29  2  0  0  0
 30 31  2  0  0  0
 32 27  2  0  0  0
  6  7  1  0  0  0
 15  9  1  0  0  0
 24 23  1  0  0  0
  7 13  1  0  0  0
  8 14  1  0  0  0
  9 10  1  0  0  0
 11 12  2  0  0  0
 17 18  1  0  0  0
 19 20  1  0  0  0
 21 22  1  0  0  0
 23 25  2  0  0  0
 27 28  1  0  0  0
 29 30  1  0  0  0
 31 32  1  0  0  0
 15 16  1  0  0  0
 24 26  1  0  0  0
M  END
> <minimizedAffinity>
-8.71084

$$$$
CHEMBL4448573


 32 36  0  0  0  0  0  0  0  0999 V2000
   19.6373   14.0035    7.9215 C   0  0  0  0  0  0  0  0  0  0  0  0
   19.8114   15.3704    7.2545 C   0  0  0  0  0  0  0  0  0  0  0  0
   19.1846   15.4219    5.8397 C   0  0  0  0  0  0  0  0  0  0  0  0
   19.6664   14.2061    4.9995 C   0  0  0  0  0  0  0  0  0  0  0  0
   20.2118   12.9099    7.0268 C   0  0  0  0  0  0  0  0  0  0  0  0
   19.5220   12.9469    5.7495 N   0  0  0  0  0  0  0  0  0  0  0  0
   18.8377   11.8855    5.1877 C   0  0  0  0  0  0  0  0  0  0  0  0
   17.2683   11.1954    3.5708 C   0  0  0  0  0  0  0  0  0  0  0  0
   18.0539    9.6357    4.9162 C   0  0  0  0  0  0  0  0  0  0  0  0
   18.8604   10.5294    5.6157 C   0  0  0  0  0  0  0  0  0  0  0  0
   19.4688    9.7475    6.6497 C   0  0  0  0  0  0  0  0  0  0  0  0
   19.0678    8.4352    6.5074 C   0  0  0  0  0  0  0  0  0  0  0  0
   18.0017   12.1657    4.1420 N   0  0  0  0  0  0  0  0  0  0  0  0
   17.2360    9.8985    3.8894 N   0  0  0  0  0  0  0  0  0  0  0  0
   18.2046    8.3861    5.4495 N   0  0  0  0  0  0  0  0  0  0  0  0
   17.7215    7.5701    5.1035 H   0  0  0  0  0  0  0  0  0  0  0  0
   17.6758   15.6709    5.8966 C   0  0  0  0  0  0  0  0  0  0  0  0
   16.8351   14.9130    5.0537 C   0  0  0  0  0  0  0  0  0  0  0  0
   15.4485   15.0883    5.0442 C   0  0  0  0  0  0  0  0  0  0  0  0
   14.8831   16.0253    5.9140 C   0  0  0  0  0  0  0  0  0  0  0  0
   15.6906   16.7686    6.7712 C   0  0  0  0  0  0  0  0  0  0  0  0
   17.0735   16.5901    6.7613 C   0  0  0  0  0  0  0  0  0  0  0  0
   14.2093   13.0403    4.2922 C   0  0  0  0  0  0  0  0  0  0  0  0
   14.5617   14.3764    4.2056 N   0  0  0  0  0  0  0  0  0  0  0  0
   14.6290   12.2483    5.1318 O   0  0  0  0  0  0  0  0  0  0  0  0
   14.1637   14.9280    3.4641 H   0  0  0  0  0  0  0  0  0  0  0  0
   13.2353   12.5240    3.2688 C   0  0  0  0  0  0  0  0  0  0  0  0
   12.3879   13.3381    2.5021 C   0  0  0  0  0  0  0  0  0  0  0  0
   11.5094   12.7697    1.5721 C   0  0  0  0  0  0  0  0  0  0  0  0
   11.4659   11.3885    1.3970 C   0  0  0  0  0  0  0  0  0  0  0  0
   12.3003   10.5684    2.1498 C   0  0  0  0  0  0  0  0  0  0  0  0
   13.1781   11.1326    3.0780 C   0  0  0  0  0  0  0  0  0  0  0  0
  1  2  1  0  0  0
  2  3  1  0  0  0
  3  4  1  0  0  0
  3 17  1  0  0  0
  4  6  1  0  0  0
  5  6  1  0  0  0
  5  1  1  0  0  0
  8 13  2  0  0  0
  9 14  2  0  0  0
 10 11  1  0  0  0
 10  7  2  0  0  0
 12 15  1  0  0  0
 18 19  2  0  0  0
 19 24  1  0  0  0
 20 21  2  0  0  0
 22 17  2  0  0  0
 23 27  1  0  0  0
 28 29  2  0  0  0
 30 31  2  0  0  0
 32 27  2  0  0  0
  6  7  1  0  0  0
 15  9  1  0  0  0
 24 23  1  0  0  0
  7 13  1  0  0  0
  8 14  1  0  0  0
  9 10  1  0  0  0
 11 12  2  0  0  0
 17 18  1  0  0  0
 19 20  1  0  0  0
 21 22  1  0  0  0
 23 25  2  0  0  0
 27 28  1  0  0  0
 29 30  1  0  0  0
 31 32  1  0  0  0
 15 16  1  0  0  0
 24 26  1  0  0  0
M  END
> <minimizedAffinity>
-8.53369

$$$$
CHEMBL4448573


 32 36  0  0  0  0  0  0  0  0999 V2000
   18.5396   16.5795    7.7166 C   0  0  0  0  0  0  0  0  0  0  0  0
   18.6010   17.6298    6.6046 C   0  0  0  0  0  0  0  0  0  0  0  0
   18.5193   17.0007    5.1922 C   0  0  0  0  0  0  0  0  0  0  0  0
   19.5445   15.8391    5.0668 C   0  0  0  0  0  0  0  0  0  0  0  0
   19.6382   15.5410    7.5142 C   0  0  0  0  0  0  0  0  0  0  0  0
   19.4547   14.9203    6.2144 N   0  0  0  0  0  0  0  0  0  0  0  0
   19.2902   13.5649    5.9998 C   0  0  0  0  0  0  0  0  0  0  0  0
   18.3537   11.8928    4.6284 C   0  0  0  0  0  0  0  0  0  0  0  0
   19.4038   11.2111    6.4429 C   0  0  0  0  0  0  0  0  0  0  0  0
   19.7172   12.5058    6.8476 C   0  0  0  0  0  0  0  0  0  0  0  0
   20.3819   12.3494    8.1063 C   0  0  0  0  0  0  0  0  0  0  0  0
   20.4973   11.0027    8.3826 C   0  0  0  0  0  0  0  0  0  0  0  0
   18.5940   13.1899    4.8836 N   0  0  0  0  0  0  0  0  0  0  0  0
   18.7274   10.8333    5.3511 N   0  0  0  0  0  0  0  0  0  0  0  0
   19.8940   10.3249    7.3612 N   0  0  0  0  0  0  0  0  0  0  0  0
   19.7929    9.3239    7.2793 H   0  0  0  0  0  0  0  0  0  0  0  0
   17.0746   16.6967    4.7894 C   0  0  0  0  0  0  0  0  0  0  0  0
   16.7426   15.3772    4.4148 C   0  0  0  0  0  0  0  0  0  0  0  0
   15.4465   15.0243    4.0282 C   0  0  0  0  0  0  0  0  0  0  0  0
   14.4510   16.0056    4.0387 C   0  0  0  0  0  0  0  0  0  0  0  0
   14.7499   17.3092    4.4266 C   0  0  0  0  0  0  0  0  0  0  0  0
   16.0502   17.6484    4.7993 C   0  0  0  0  0  0  0  0  0  0  0  0
   14.6952   12.6639    4.4276 C   0  0  0  0  0  0  0  0  0  0  0  0
   15.0629   13.7270    3.6205 N   0  0  0  0  0  0  0  0  0  0  0  0
   14.6498   12.6867    5.6546 O   0  0  0  0  0  0  0  0  0  0  0  0
   15.0772   13.5874    2.6241 H   0  0  0  0  0  0  0  0  0  0  0  0
   14.3262   11.3792    3.7376 C   0  0  0  0  0  0  0  0  0  0  0  0
   15.0797   10.1979    3.8100 C   0  0  0  0  0  0  0  0  0  0  0  0
   14.6607    9.0470    3.1320 C   0  0  0  0  0  0  0  0  0  0  0  0
   13.4903    9.0612    2.3767 C   0  0  0  0  0  0  0  0  0  0  0  0
   12.7326   10.2251    2.2958 C   0  0  0  0  0  0  0  0  0  0  0  0
   13.1478   11.3746    2.9715 C   0  0  0  0  0  0  0  0  0  0  0  0
  1  2  1  0  0  0
  2  3  1  0  0  0
  3  4  1  0  0  0
  3 17  1  0  0  0
  4  6  1  0  0  0
  5  6  1  0  0  0
  5  1  1  0  0  0
  8 13  2  0  0  0
  9 14  2  0  0  0
 10 11  1  0  0  0
 10  7  2  0  0  0
 12 15  1  0  0  0
 18 19  2  0  0  0
 19 24  1  0  0  0
 20 21  2  0  0  0
 22 17  2  0  0  0
 23 27  1  0  0  0
 28 29  2  0  0  0
 30 31  2  0  0  0
 32 27  2  0  0  0
  6  7  1  0  0  0
 15  9  1  0  0  0
 24 23  1  0  0  0
  7 13  1  0  0  0
  8 14  1  0  0  0
  9 10  1  0  0  0
 11 12  2  0  0  0
 17 18  1  0  0  0
 19 20  1  0  0  0
 21 22  1  0  0  0
 23 25  2  0  0  0
 27 28  1  0  0  0
 29 30  1  0  0  0
 31 32  1  0  0  0
 15 16  1  0  0  0
 24 26  1  0  0  0
M  END
> <minimizedAffinity>
-8.43121

$$$$
CHEMBL4448573


 32 36  0  0  0  0  0  0  0  0999 V2000
   19.6907    6.2346    7.9369 C   0  0  0  0  0  0  0  0  0  0  0  0
   19.4409    7.7315    7.7354 C   0  0  0  0  0  0  0  0  0  0  0  0
   19.5369    8.1518    6.2483 C   0  0  0  0  0  0  0  0  0  0  0  0
   20.8528    7.6076    5.6252 C   0  0  0  0  0  0  0  0  0  0  0  0
   21.0411    5.8467    7.3432 C   0  0  0  0  0  0  0  0  0  0  0  0
   21.0376    6.1785    5.9295 N   0  0  0  0  0  0  0  0  0  0  0  0
   21.2698    5.2807    4.9046 C   0  0  0  0  0  0  0  0  0  0  0  0
   20.5096    3.3654    3.7613 C   0  0  0  0  0  0  0  0  0  0  0  0
   22.4448    4.2005    3.1151 C   0  0  0  0  0  0  0  0  0  0  0  0
   22.4118    5.2236    4.0588 C   0  0  0  0  0  0  0  0  0  0  0  0
   23.6527    5.9190    3.8942 C   0  0  0  0  0  0  0  0  0  0  0  0
   24.3464    5.3468    2.8479 C   0  0  0  0  0  0  0  0  0  0  0  0
   20.3345    4.3021    4.7086 N   0  0  0  0  0  0  0  0  0  0  0  0
   21.5334    3.2411    2.9122 N   0  0  0  0  0  0  0  0  0  0  0  0
   23.5978    4.3006    2.3877 N   0  0  0  0  0  0  0  0  0  0  0  0
   23.8418    3.6684    1.6394 H   0  0  0  0  0  0  0  0  0  0  0  0
   18.2391    7.8600    5.4917 C   0  0  0  0  0  0  0  0  0  0  0  0
   17.4347    8.9472    5.0884 C   0  0  0  0  0  0  0  0  0  0  0  0
   16.2329    8.7599    4.3998 C   0  0  0  0  0  0  0  0  0  0  0  0
   15.8347    7.4578    4.0840 C   0  0  0  0  0  0  0  0  0  0  0  0
   16.6234    6.3705    4.4515 C   0  0  0  0  0  0  0  0  0  0  0  0
   17.8146    6.5728    5.1477 C   0  0  0  0  0  0  0  0  0  0  0  0
   14.1997    9.7030    3.2719 C   0  0  0  0  0  0  0  0  0  0  0  0
   15.3766    9.8078    3.9935 N   0  0  0  0  0  0  0  0  0  0  0  0
   13.7103    8.6545    2.8604 O   0  0  0  0  0  0  0  0  0  0  0  0
   15.6892   10.7245    4.2664 H   0  0  0  0  0  0  0  0  0  0  0  0
   13.4692   10.9824    2.9685 C   0  0  0  0  0  0  0  0  0  0  0  0
   13.8970   12.2539    3.3793 C   0  0  0  0  0  0  0  0  0  0  0  0
   13.1511   13.3927    3.0528 C   0  0  0  0  0  0  0  0  0  0  0  0
   11.9746   13.2769    2.3161 C   0  0  0  0  0  0  0  0  0  0  0  0
   11.5379   12.0228    1.9015 C   0  0  0  0  0  0  0  0  0  0  0  0
   12.2802   10.8849    2.2253 C   0  0  0  0  0  0  0  0  0  0  0  0
  1  2  1  0  0  0
  2  3  1  0  0  0
  3  4  1  0  0  0
  3 17  1  0  0  0
  4  6  1  0  0  0
  5  6  1  0  0  0
  5  1  1  0  0  0
  8 13  2  0  0  0
  9 14  2  0  0  0
 10 11  1  0  0  0
 10  7  2  0  0  0
 12 15  1  0  0  0
 18 19  2  0  0  0
 19 24  1  0  0  0
 20 21  2  0  0  0
 22 17  2  0  0  0
 23 27  1  0  0  0
 28 29  2  0  0  0
 30 31  2  0  0  0
 32 27  2  0  0  0
  6  7  1  0  0  0
 15  9  1  0  0  0
 24 23  1  0  0  0
  7 13  1  0  0  0
  8 14  1  0  0  0
  9 10  1  0  0  0
 11 12  2  0  0  0
 17 18  1  0  0  0
 19 20  1  0  0  0
 21 22  1  0  0  0
 23 25  2  0  0  0
 27 28  1  0  0  0
 29 30  1  0  0  0
 31 32  1  0  0  0
 15 16  1  0  0  0
 24 26  1  0  0  0
M  END
> <minimizedAffinity>
-8.31185

$$$$
CHEMBL4448573


 32 36  0  0  0  0  0  0  0  0999 V2000
   15.6265   17.6091    6.5466 C   0  0  0  0  0  0  0  0  0  0  0  0
   15.7034   17.4789    5.0232 C   0  0  0  0  0  0  0  0  0  0  0  0
   17.1583   17.3271    4.5156 C   0  0  0  0  0  0  0  0  0  0  0  0
   18.0561   18.4348    5.1344 C   0  0  0  0  0  0  0  0  0  0  0  0
   16.4951   18.7720    7.0150 C   0  0  0  0  0  0  0  0  0  0  0  0
   17.8625   18.5284    6.5914 N   0  0  0  0  0  0  0  0  0  0  0  0
   18.9543   18.4648    7.4365 C   0  0  0  0  0  0  0  0  0  0  0  0
   20.8875   19.5518    8.2330 C   0  0  0  0  0  0  0  0  0  0  0  0
   20.5173   17.5134    8.9862 C   0  0  0  0  0  0  0  0  0  0  0  0
   19.3518   17.3607    8.2401 C   0  0  0  0  0  0  0  0  0  0  0  0
   18.9149   16.0231    8.5058 C   0  0  0  0  0  0  0  0  0  0  0  0
   19.7722   15.4503    9.4223 C   0  0  0  0  0  0  0  0  0  0  0  0
   19.7813   19.5538    7.4703 N   0  0  0  0  0  0  0  0  0  0  0  0
   21.3309   18.5757    9.0298 N   0  0  0  0  0  0  0  0  0  0  0  0
   20.7431   16.3703    9.7012 N   0  0  0  0  0  0  0  0  0  0  0  0
   21.5301   16.2466   10.3211 H   0  0  0  0  0  0  0  0  0  0  0  0
   17.6538   15.8845    4.6378 C   0  0  0  0  0  0  0  0  0  0  0  0
   16.8209   14.8439    4.1738 C   0  0  0  0  0  0  0  0  0  0  0  0
   17.2015   13.5016    4.2577 C   0  0  0  0  0  0  0  0  0  0  0  0
   18.4537   13.1900    4.7951 C   0  0  0  0  0  0  0  0  0  0  0  0
   19.3022   14.2013    5.2383 C   0  0  0  0  0  0  0  0  0  0  0  0
   18.9039   15.5353    5.1580 C   0  0  0  0  0  0  0  0  0  0  0  0
   15.1888   12.0070    4.3629 C   0  0  0  0  0  0  0  0  0  0  0  0
   16.3996   12.4188    3.8324 N   0  0  0  0  0  0  0  0  0  0  0  0
   14.6144   12.5327    5.3126 O   0  0  0  0  0  0  0  0  0  0  0  0
   16.7832   11.9007    3.0598 H   0  0  0  0  0  0  0  0  0  0  0  0
   14.5320   10.8163    3.7200 C   0  0  0  0  0  0  0  0  0  0  0  0
   13.2845   10.8516    3.0787 C   0  0  0  0  0  0  0  0  0  0  0  0
   12.7474    9.6914    2.5084 C   0  0  0  0  0  0  0  0  0  0  0  0
   13.4454    8.4876    2.5711 C   0  0  0  0  0  0  0  0  0  0  0  0
   14.6835    8.4371    3.2034 C   0  0  0  0  0  0  0  0  0  0  0  0
   15.2221    9.5930    3.7728 C   0  0  0  0  0  0  0  0  0  0  0  0
  1  2  1  0  0  0
  2  3  1  0  0  0
  3  4  1  0  0  0
  3 17  1  0  0  0
  4  6  1  0  0  0
  5  6  1  0  0  0
  5  1  1  0  0  0
  8 13  2  0  0  0
  9 14  2  0  0  0
 10 11  1  0  0  0
 10  7  2  0  0  0
 12 15  1  0  0  0
 18 19  2  0  0  0
 19 24  1  0  0  0
 20 21  2  0  0  0
 22 17  2  0  0  0
 23 27  1  0  0  0
 28 29  2  0  0  0
 30 31  2  0  0  0
 32 27  2  0  0  0
  6  7  1  0  0  0
 15  9  1  0  0  0
 24 23  1  0  0  0
  7 13  1  0  0  0
  8 14  1  0  0  0
  9 10  1  0  0  0
 11 12  2  0  0  0
 17 18  1  0  0  0
 19 20  1  0  0  0
 21 22  1  0  0  0
 23 25  2  0  0  0
 27 28  1  0  0  0
 29 30  1  0  0  0
 31 32  1  0  0  0
 15 16  1  0  0  0
 24 26  1  0  0  0
M  END
> <minimizedAffinity>
-8.16760

$$$$
CHEMBL4545883


 29 32  0  0  0  0  0  0  0  0999 V2000
   13.8595   12.0097    3.6573 C   0  0  0  0  0  0  0  0  0  0  0  0
   12.9214   11.5786    2.6980 C   0  0  0  0  0  0  0  0  0  0  0  0
   11.9079   12.3783    2.1112 C   0  0  0  0  0  0  0  0  0  0  0  0
   11.0739   11.8226    1.1562 C   0  0  0  0  0  0  0  0  0  0  0  0
   12.1384    9.8015    1.3424 C   0  0  0  0  0  0  0  0  0  0  0  0
   13.0331   10.2421    2.3051 C   0  0  0  0  0  0  0  0  0  0  0  0
   14.7767    9.8868    3.7320 C   0  0  0  0  0  0  0  0  0  0  0  0
   11.1686   10.5461    0.7520 N   0  0  0  0  0  0  0  0  0  0  0  0
   13.9457    9.3998    2.8028 N   0  0  0  0  0  0  0  0  0  0  0  0
   14.7576   11.1558    4.1756 N   0  0  0  0  0  0  0  0  0  0  0  0
   15.7954    8.9715    4.2829 C   0  0  0  0  0  0  0  0  0  0  0  0
   15.7321    7.5896    4.0632 C   0  0  0  0  0  0  0  0  0  0  0  0
   16.7012    6.7579    4.6012 C   0  0  0  0  0  0  0  0  0  0  0  0
   17.7959    8.5297    5.5537 C   0  0  0  0  0  0  0  0  0  0  0  0
   16.8707    9.4353    5.0549 C   0  0  0  0  0  0  0  0  0  0  0  0
   17.7331    7.1995    5.3448 N   0  0  0  0  0  0  0  0  0  0  0  0
   13.8472   13.3273    4.1087 N   0  0  0  0  0  0  0  0  0  0  0  0
   12.9241   13.7060    4.2726 H   0  0  0  0  0  0  0  0  0  0  0  0
   14.2113   15.6593    3.3443 C   0  0  0  0  0  0  0  0  0  0  0  0
   14.8783   14.3531    3.8092 C   0  0  0  0  0  0  0  0  0  0  0  0
   15.6794   13.8021    2.6054 C   0  0  0  0  0  0  0  0  0  0  0  0
   15.8402   14.5681    5.0366 C   0  0  0  0  0  0  0  0  0  0  0  0
   17.7533   16.0784    4.8433 C   0  0  0  0  0  0  0  0  0  0  0  0
   18.1876   17.5492    4.8274 C   0  0  0  0  0  0  0  0  0  0  0  0
   17.5902   18.3637    5.9736 C   0  0  0  0  0  0  0  0  0  0  0  0
   17.1885   17.4487    7.1208 C   0  0  0  0  0  0  0  0  0  0  0  0
   16.1635   16.3871    6.6591 C   0  0  0  0  0  0  0  0  0  0  0  0
   14.7469   16.9465    6.8352 C   0  0  0  0  0  0  0  0  0  0  0  0
   16.3474   15.9515    5.2486 N   0  0  0  0  0  0  0  0  0  0  0  0
 19 20  1  0  0  0
 20 21  1  0  0  0
 20 17  1  0  0  0
 20 22  1  0  0  0
  1  2  2  0  0  0
  3  4  2  0  0  0
  5  8  2  0  0  0
  6  9  2  0  0  0
  6  2  1  0  0  0
  7 10  2  0  0  0
  7 11  1  0  0  0
 12 13  2  0  0  0
 14 16  2  0  0  0
 15 11  2  0  0  0
 22 29  1  0  0  0
 23 29  1  0  0  0
 23 24  1  0  0  0
 24 25  1  0  0  0
 25 26  1  0  0  0
 26 27  1  0  0  0
 27 28  1  0  0  0
 27 29  1  0  0  0
 17  1  1  0  0  0
  1 10  1  0  0  0
  2  3  1  0  0  0
  4  8  1  0  0  0
  5  6  1  0  0  0
  7  9  1  0  0  0
 11 12  1  0  0  0
 13 16  1  0  0  0
 14 15  1  0  0  0
 17 18  1  0  0  0
M  END
> <minimizedAffinity>
-9.20548

$$$$
CHEMBL4545883


 29 32  0  0  0  0  0  0  0  0999 V2000
   13.9886   11.9758    3.6804 C   0  0  0  0  0  0  0  0  0  0  0  0
   13.0083   11.5908    2.7440 C   0  0  0  0  0  0  0  0  0  0  0  0
   12.0244   12.4398    2.1767 C   0  0  0  0  0  0  0  0  0  0  0  0
   11.1416   11.9248    1.2428 C   0  0  0  0  0  0  0  0  0  0  0  0
   12.1046    9.8521    1.4138 C   0  0  0  0  0  0  0  0  0  0  0  0
   13.0422   10.2490    2.3544 C   0  0  0  0  0  0  0  0  0  0  0  0
   14.7969    9.8087    3.7436 C   0  0  0  0  0  0  0  0  0  0  0  0
   11.1614   10.6440    0.8420 N   0  0  0  0  0  0  0  0  0  0  0  0
   13.9213    9.3624    2.8352 N   0  0  0  0  0  0  0  0  0  0  0  0
   14.8530   11.0784    4.1822 N   0  0  0  0  0  0  0  0  0  0  0  0
   15.7792    8.8439    4.2755 C   0  0  0  0  0  0  0  0  0  0  0  0
   16.8587    9.2596    5.0654 C   0  0  0  0  0  0  0  0  0  0  0  0
   17.7668    8.3280    5.5426 C   0  0  0  0  0  0  0  0  0  0  0  0
   16.6411    6.6073    4.5342 C   0  0  0  0  0  0  0  0  0  0  0  0
   15.6859    7.4689    4.0145 C   0  0  0  0  0  0  0  0  0  0  0  0
   17.6816    7.0079    5.2918 N   0  0  0  0  0  0  0  0  0  0  0  0
   14.0543   13.2937    4.1264 N   0  0  0  0  0  0  0  0  0  0  0  0
   13.1887   13.8093    4.0405 H   0  0  0  0  0  0  0  0  0  0  0  0
   16.2801   13.6346    3.0851 C   0  0  0  0  0  0  0  0  0  0  0  0
   15.2698   14.1466    4.1264 C   0  0  0  0  0  0  0  0  0  0  0  0
   15.9179   13.9515    5.5180 C   0  0  0  0  0  0  0  0  0  0  0  0
   14.9010   15.6626    3.9176 C   0  0  0  0  0  0  0  0  0  0  0  0
   14.1086   17.1926    5.6523 C   0  0  0  0  0  0  0  0  0  0  0  0
   14.5033   17.9487    6.9270 C   0  0  0  0  0  0  0  0  0  0  0  0
   15.8285   18.6973    6.7946 C   0  0  0  0  0  0  0  0  0  0  0  0
   16.1400   18.9684    5.3304 C   0  0  0  0  0  0  0  0  0  0  0  0
   16.2118   17.6540    4.5194 C   0  0  0  0  0  0  0  0  0  0  0  0
   17.6497   17.1228    4.5498 C   0  0  0  0  0  0  0  0  0  0  0  0
   15.2874   16.5968    5.0102 N   0  0  0  0  0  0  0  0  0  0  0  0
 19 20  1  0  0  0
 20 21  1  0  0  0
 20 17  1  0  0  0
 20 22  1  0  0  0
  1  2  2  0  0  0
  3  4  2  0  0  0
  5  8  2  0  0  0
  6  9  2  0  0  0
  6  2  1  0  0  0
  7 10  2  0  0  0
  7 11  1  0  0  0
 12 13  2  0  0  0
 14 16  2  0  0  0
 15 11  2  0  0  0
 22 29  1  0  0  0
 23 29  1  0  0  0
 23 24  1  0  0  0
 24 25  1  0  0  0
 25 26  1  0  0  0
 26 27  1  0  0  0
 27 28  1  0  0  0
 27 29  1  0  0  0
 17  1  1  0  0  0
  1 10  1  0  0  0
  2  3  1  0  0  0
  4  8  1  0  0  0
  5  6  1  0  0  0
  7  9  1  0  0  0
 11 12  1  0  0  0
 13 16  1  0  0  0
 14 15  1  0  0  0
 17 18  1  0  0  0
M  END
> <minimizedAffinity>
-9.08931

$$$$
CHEMBL4545883


 29 32  0  0  0  0  0  0  0  0999 V2000
   16.2090   10.6091    4.6614 C   0  0  0  0  0  0  0  0  0  0  0  0
   16.5702    9.2491    4.7402 C   0  0  0  0  0  0  0  0  0  0  0  0
   17.6819    8.7259    5.4481 C   0  0  0  0  0  0  0  0  0  0  0  0
   17.8954    7.3581    5.4597 C   0  0  0  0  0  0  0  0  0  0  0  0
   16.0517    7.0171    4.1416 C   0  0  0  0  0  0  0  0  0  0  0  0
   15.7326    8.3633    4.0569 C   0  0  0  0  0  0  0  0  0  0  0  0
   14.4142   10.0664    3.3058 C   0  0  0  0  0  0  0  0  0  0  0  0
   17.0989    6.4852    4.8228 N   0  0  0  0  0  0  0  0  0  0  0  0
   14.6646    8.7525    3.3511 N   0  0  0  0  0  0  0  0  0  0  0  0
   15.1523   11.0005    3.9303 N   0  0  0  0  0  0  0  0  0  0  0  0
   13.2333   10.5095    2.5390 C   0  0  0  0  0  0  0  0  0  0  0  0
   12.5898    9.6591    1.6308 C   0  0  0  0  0  0  0  0  0  0  0  0
   11.4878   10.1096    0.9217 C   0  0  0  0  0  0  0  0  0  0  0  0
   11.5928   12.1658    1.9247 C   0  0  0  0  0  0  0  0  0  0  0  0
   12.7005   11.7998    2.6755 C   0  0  0  0  0  0  0  0  0  0  0  0
   10.9755   11.3483    1.0485 N   0  0  0  0  0  0  0  0  0  0  0  0
   16.9669   11.5760    5.3177 N   0  0  0  0  0  0  0  0  0  0  0  0
   17.0460   11.4404    6.3165 H   0  0  0  0  0  0  0  0  0  0  0  0
   17.1932   13.0670    3.3477 C   0  0  0  0  0  0  0  0  0  0  0  0
   17.1326   12.9862    4.8829 C   0  0  0  0  0  0  0  0  0  0  0  0
   18.5178   13.4274    5.4131 C   0  0  0  0  0  0  0  0  0  0  0  0
   16.0102   13.9054    5.4938 C   0  0  0  0  0  0  0  0  0  0  0  0
   16.4558   16.2823    5.8540 C   0  0  0  0  0  0  0  0  0  0  0  0
   16.5682   17.6503    5.1699 C   0  0  0  0  0  0  0  0  0  0  0  0
   15.3943   17.9547    4.2406 C   0  0  0  0  0  0  0  0  0  0  0  0
   14.1803   17.1251    4.6312 C   0  0  0  0  0  0  0  0  0  0  0  0
   14.4946   15.6121    4.5796 C   0  0  0  0  0  0  0  0  0  0  0  0
   14.1898   15.0833    3.1731 C   0  0  0  0  0  0  0  0  0  0  0  0
   15.9007   15.2806    4.9346 N   0  0  0  0  0  0  0  0  0  0  0  0
 19 20  1  0  0  0
 20 21  1  0  0  0
 20 17  1  0  0  0
 20 22  1  0  0  0
  1  2  2  0  0  0
  3  4  2  0  0  0
  5  8  2  0  0  0
  6  9  2  0  0  0
  6  2  1  0  0  0
  7 10  2  0  0  0
  7 11  1  0  0  0
 12 13  2  0  0  0
 14 16  2  0  0  0
 15 11  2  0  0  0
 22 29  1  0  0  0
 23 29  1  0  0  0
 23 24  1  0  0  0
 24 25  1  0  0  0
 25 26  1  0  0  0
 26 27  1  0  0  0
 27 28  1  0  0  0
 27 29  1  0  0  0
 17  1  1  0  0  0
  1 10  1  0  0  0
  2  3  1  0  0  0
  4  8  1  0  0  0
  5  6  1  0  0  0
  7  9  1  0  0  0
 11 12  1  0  0  0
 13 16  1  0  0  0
 14 15  1  0  0  0
 17 18  1  0  0  0
M  END
> <minimizedAffinity>
-9.00825

$$$$
CHEMBL4545883


 29 32  0  0  0  0  0  0  0  0999 V2000
   17.4036   12.6992    4.3185 C   0  0  0  0  0  0  0  0  0  0  0  0
   17.7789   11.3908    4.6837 C   0  0  0  0  0  0  0  0  0  0  0  0
   19.0427   11.0030    5.1967 C   0  0  0  0  0  0  0  0  0  0  0  0
   19.2576    9.6793    5.5404 C   0  0  0  0  0  0  0  0  0  0  0  0
   17.1283    9.1238    4.8999 C   0  0  0  0  0  0  0  0  0  0  0  0
   16.7920   10.4145    4.5223 C   0  0  0  0  0  0  0  0  0  0  0  0
   15.3122   11.9365    3.6880 C   0  0  0  0  0  0  0  0  0  0  0  0
   18.3229    8.7252    5.4076 N   0  0  0  0  0  0  0  0  0  0  0  0
   15.5715   10.6711    4.0379 N   0  0  0  0  0  0  0  0  0  0  0  0
   16.1872   12.9503    3.8073 N   0  0  0  0  0  0  0  0  0  0  0  0
   13.9662   12.2363    3.1613 C   0  0  0  0  0  0  0  0  0  0  0  0
   13.1277   11.2236    2.6783 C   0  0  0  0  0  0  0  0  0  0  0  0
   11.8727   11.5408    2.1840 C   0  0  0  0  0  0  0  0  0  0  0  0
   12.1923   13.7699    2.6012 C   0  0  0  0  0  0  0  0  0  0  0  0
   13.4621   13.5443    3.1128 C   0  0  0  0  0  0  0  0  0  0  0  0
   11.3867   12.7955    2.1336 N   0  0  0  0  0  0  0  0  0  0  0  0
   18.3061   13.7517    4.4526 N   0  0  0  0  0  0  0  0  0  0  0  0
   19.2221   13.5709    4.0643 H   0  0  0  0  0  0  0  0  0  0  0  0
   19.1111   16.0015    5.1202 C   0  0  0  0  0  0  0  0  0  0  0  0
   18.2978   14.7643    5.5387 C   0  0  0  0  0  0  0  0  0  0  0  0
   19.0472   14.1117    6.7249 C   0  0  0  0  0  0  0  0  0  0  0  0
   16.8272   15.1239    5.9698 C   0  0  0  0  0  0  0  0  0  0  0  0
   15.9642   17.2291    6.8652 C   0  0  0  0  0  0  0  0  0  0  0  0
   15.7280   18.7135    6.5599 C   0  0  0  0  0  0  0  0  0  0  0  0
   15.0550   18.9485    5.2086 C   0  0  0  0  0  0  0  0  0  0  0  0
   14.3037   17.7015    4.7668 C   0  0  0  0  0  0  0  0  0  0  0  0
   15.2506   16.4838    4.6618 C   0  0  0  0  0  0  0  0  0  0  0  0
   15.8370   16.4238    3.2464 C   0  0  0  0  0  0  0  0  0  0  0  0
   16.3601   16.5013    5.6526 N   0  0  0  0  0  0  0  0  0  0  0  0
 19 20  1  0  0  0
 20 21  1  0  0  0
 20 17  1  0  0  0
 20 22  1  0  0  0
  1  2  2  0  0  0
  3  4  2  0  0  0
  5  8  2  0  0  0
  6  9  2  0  0  0
  6  2  1  0  0  0
  7 10  2  0  0  0
  7 11  1  0  0  0
 12 13  2  0  0  0
 14 16  2  0  0  0
 15 11  2  0  0  0
 22 29  1  0  0  0
 23 29  1  0  0  0
 23 24  1  0  0  0
 24 25  1  0  0  0
 25 26  1  0  0  0
 26 27  1  0  0  0
 27 28  1  0  0  0
 27 29  1  0  0  0
 17  1  1  0  0  0
  1 10  1  0  0  0
  2  3  1  0  0  0
  4  8  1  0  0  0
  5  6  1  0  0  0
  7  9  1  0  0  0
 11 12  1  0  0  0
 13 16  1  0  0  0
 14 15  1  0  0  0
 17 18  1  0  0  0
M  END
> <minimizedAffinity>
-8.60574

$$$$
CHEMBL4545883


 29 32  0  0  0  0  0  0  0  0999 V2000
   16.5292   14.2851    5.4039 C   0  0  0  0  0  0  0  0  0  0  0  0
   17.9121   14.5561    5.4252 C   0  0  0  0  0  0  0  0  0  0  0  0
   18.9469   13.5869    5.4490 C   0  0  0  0  0  0  0  0  0  0  0  0
   20.2669   14.0043    5.4383 C   0  0  0  0  0  0  0  0  0  0  0  0
   19.6155   16.2014    5.4051 C   0  0  0  0  0  0  0  0  0  0  0  0
   18.2604   15.9094    5.4117 C   0  0  0  0  0  0  0  0  0  0  0  0
   16.0722   16.5532    5.4110 C   0  0  0  0  0  0  0  0  0  0  0  0
   20.6281   15.2968    5.4122 N   0  0  0  0  0  0  0  0  0  0  0  0
   17.3641   16.9027    5.3994 N   0  0  0  0  0  0  0  0  0  0  0  0
   15.6307   15.2834    5.4188 N   0  0  0  0  0  0  0  0  0  0  0  0
   15.0720   17.6385    5.3875 C   0  0  0  0  0  0  0  0  0  0  0  0
   15.3477   18.8743    4.7884 C   0  0  0  0  0  0  0  0  0  0  0  0
   14.3884   19.8742    4.7906 C   0  0  0  0  0  0  0  0  0  0  0  0
   12.9032   18.5465    5.9204 C   0  0  0  0  0  0  0  0  0  0  0  0
   13.8025   17.4909    5.9653 C   0  0  0  0  0  0  0  0  0  0  0  0
   13.1698   19.7367    5.3466 N   0  0  0  0  0  0  0  0  0  0  0  0
   16.0716   12.9695    5.4005 N   0  0  0  0  0  0  0  0  0  0  0  0
   16.3737   12.4182    6.1925 H   0  0  0  0  0  0  0  0  0  0  0  0
   16.9540   11.2909    3.8010 C   0  0  0  0  0  0  0  0  0  0  0  0
   15.7522   12.1686    4.1915 C   0  0  0  0  0  0  0  0  0  0  0  0
   15.5531   13.1948    3.0505 C   0  0  0  0  0  0  0  0  0  0  0  0
   14.4333   11.3338    4.3943 C   0  0  0  0  0  0  0  0  0  0  0  0
   12.4750   11.3551    2.9303 C   0  0  0  0  0  0  0  0  0  0  0  0
   11.9479   10.9693    1.5427 C   0  0  0  0  0  0  0  0  0  0  0  0
   12.2984    9.5365    1.1448 C   0  0  0  0  0  0  0  0  0  0  0  0
   12.5758    8.6956    2.3820 C   0  0  0  0  0  0  0  0  0  0  0  0
   13.7319    9.2918    3.2177 C   0  0  0  0  0  0  0  0  0  0  0  0
   15.0606    8.7029    2.7294 C   0  0  0  0  0  0  0  0  0  0  0  0
   13.8043   10.7767    3.1654 N   0  0  0  0  0  0  0  0  0  0  0  0
 19 20  1  0  0  0
 20 21  1  0  0  0
 20 17  1  0  0  0
 20 22  1  0  0  0
  1  2  2  0  0  0
  3  4  2  0  0  0
  5  8  2  0  0  0
  6  9  2  0  0  0
  6  2  1  0  0  0
  7 10  2  0  0  0
  7 11  1  0  0  0
 12 13  2  0  0  0
 14 16  2  0  0  0
 15 11  2  0  0  0
 22 29  1  0  0  0
 23 29  1  0  0  0
 23 24  1  0  0  0
 24 25  1  0  0  0
 25 26  1  0  0  0
 26 27  1  0  0  0
 27 28  1  0  0  0
 27 29  1  0  0  0
 17  1  1  0  0  0
  1 10  1  0  0  0
  2  3  1  0  0  0
  4  8  1  0  0  0
  5  6  1  0  0  0
  7  9  1  0  0  0
 11 12  1  0  0  0
 13 16  1  0  0  0
 14 15  1  0  0  0
 17 18  1  0  0  0
M  END
> <minimizedAffinity>
-8.46845

$$$$
CHEMBL4545883


 29 32  0  0  0  0  0  0  0  0999 V2000
   15.7744   13.6638    5.2123 C   0  0  0  0  0  0  0  0  0  0  0  0
   17.1143   13.2559    5.3685 C   0  0  0  0  0  0  0  0  0  0  0  0
   18.1330   13.9892    6.0284 C   0  0  0  0  0  0  0  0  0  0  0  0
   19.4022   13.4457    6.1296 C   0  0  0  0  0  0  0  0  0  0  0  0
   18.7375   11.5744    4.9854 C   0  0  0  0  0  0  0  0  0  0  0  0
   17.4318   12.0097    4.8213 C   0  0  0  0  0  0  0  0  0  0  0  0
   15.3071   11.7228    4.0428 C   0  0  0  0  0  0  0  0  0  0  0  0
   19.7296   12.2459    5.6244 N   0  0  0  0  0  0  0  0  0  0  0  0
   16.5497   11.2426    4.1705 N   0  0  0  0  0  0  0  0  0  0  0  0
   14.8971   12.9047    4.5354 N   0  0  0  0  0  0  0  0  0  0  0  0
   14.3206   10.8827    3.3358 C   0  0  0  0  0  0  0  0  0  0  0  0
   14.5039    9.5012    3.1949 C   0  0  0  0  0  0  0  0  0  0  0  0
   13.5614    8.7431    2.5187 C   0  0  0  0  0  0  0  0  0  0  0  0
   12.2672   10.5873    2.1076 C   0  0  0  0  0  0  0  0  0  0  0  0
   13.1575   11.4223    2.7671 C   0  0  0  0  0  0  0  0  0  0  0  0
   12.4453    9.2583    1.9694 N   0  0  0  0  0  0  0  0  0  0  0  0
   15.3465   14.8830    5.7324 N   0  0  0  0  0  0  0  0  0  0  0  0
   14.7265   14.8056    6.5274 H   0  0  0  0  0  0  0  0  0  0  0  0
   13.9346   16.0756    4.0773 C   0  0  0  0  0  0  0  0  0  0  0  0
   15.1905   16.1437    4.9634 C   0  0  0  0  0  0  0  0  0  0  0  0
   16.4103   16.2078    4.0133 C   0  0  0  0  0  0  0  0  0  0  0  0
   15.1912   17.3958    5.9174 C   0  0  0  0  0  0  0  0  0  0  0  0
   17.2942   18.2799    6.7973 C   0  0  0  0  0  0  0  0  0  0  0  0
   18.5402   19.1078    6.4596 C   0  0  0  0  0  0  0  0  0  0  0  0
   18.2131   20.4275    5.7628 C   0  0  0  0  0  0  0  0  0  0  0  0
   16.7822   20.8463    6.0659 C   0  0  0  0  0  0  0  0  0  0  0  0
   15.7736   19.7653    5.6136 C   0  0  0  0  0  0  0  0  0  0  0  0
   15.3640   20.0364    4.1612 C   0  0  0  0  0  0  0  0  0  0  0  0
   16.2947   18.3764    5.7256 N   0  0  0  0  0  0  0  0  0  0  0  0
 19 20  1  0  0  0
 20 21  1  0  0  0
 20 17  1  0  0  0
 20 22  1  0  0  0
  1  2  2  0  0  0
  3  4  2  0  0  0
  5  8  2  0  0  0
  6  9  2  0  0  0
  6  2  1  0  0  0
  7 10  2  0  0  0
  7 11  1  0  0  0
 12 13  2  0  0  0
 14 16  2  0  0  0
 15 11  2  0  0  0
 22 29  1  0  0  0
 23 29  1  0  0  0
 23 24  1  0  0  0
 24 25  1  0  0  0
 25 26  1  0  0  0
 26 27  1  0  0  0
 27 28  1  0  0  0
 27 29  1  0  0  0
 17  1  1  0  0  0
  1 10  1  0  0  0
  2  3  1  0  0  0
  4  8  1  0  0  0
  5  6  1  0  0  0
  7  9  1  0  0  0
 11 12  1  0  0  0
 13 16  1  0  0  0
 14 15  1  0  0  0
 17 18  1  0  0  0
M  END
> <minimizedAffinity>
-8.32884

$$$$
CHEMBL4545883


 29 32  0  0  0  0  0  0  0  0999 V2000
   16.4464   16.1116    4.6625 C   0  0  0  0  0  0  0  0  0  0  0  0
   15.4185   16.8276    5.3082 C   0  0  0  0  0  0  0  0  0  0  0  0
   14.2046   17.2548    4.7124 C   0  0  0  0  0  0  0  0  0  0  0  0
   13.2712   17.9270    5.4827 C   0  0  0  0  0  0  0  0  0  0  0  0
   14.6341   17.7985    7.3209 C   0  0  0  0  0  0  0  0  0  0  0  0
   15.6428   17.1182    6.6566 C   0  0  0  0  0  0  0  0  0  0  0  0
   17.6929   16.1194    6.6117 C   0  0  0  0  0  0  0  0  0  0  0  0
   13.4564   18.2068    6.7824 N   0  0  0  0  0  0  0  0  0  0  0  0
   16.7563   16.7705    7.3117 N   0  0  0  0  0  0  0  0  0  0  0  0
   17.5750   15.7869    5.3144 N   0  0  0  0  0  0  0  0  0  0  0  0
   18.9226   15.7207    7.3242 C   0  0  0  0  0  0  0  0  0  0  0  0
   19.9472   15.0178    6.6774 C   0  0  0  0  0  0  0  0  0  0  0  0
   21.0855   14.6525    7.3781 C   0  0  0  0  0  0  0  0  0  0  0  0
   20.2977   15.6140    9.3016 C   0  0  0  0  0  0  0  0  0  0  0  0
   19.1254   16.0189    8.6796 C   0  0  0  0  0  0  0  0  0  0  0  0
   21.2822   14.9349    8.6798 N   0  0  0  0  0  0  0  0  0  0  0  0
   16.3197   15.7570    3.3214 N   0  0  0  0  0  0  0  0  0  0  0  0
   16.0540   16.5171    2.7099 H   0  0  0  0  0  0  0  0  0  0  0  0
   17.1679   13.4793    2.8238 C   0  0  0  0  0  0  0  0  0  0  0  0
   15.9447   14.4125    2.8146 C   0  0  0  0  0  0  0  0  0  0  0  0
   15.5463   14.6198    1.3338 C   0  0  0  0  0  0  0  0  0  0  0  0
   14.7263   13.8216    3.6171 C   0  0  0  0  0  0  0  0  0  0  0  0
   12.5749   13.2789    2.5899 C   0  0  0  0  0  0  0  0  0  0  0  0
   11.8444   12.2997    1.6628 C   0  0  0  0  0  0  0  0  0  0  0  0
   12.1124   10.8352    2.0059 C   0  0  0  0  0  0  0  0  0  0  0  0
   12.5564   10.7031    3.4550 C   0  0  0  0  0  0  0  0  0  0  0  0
   13.8310   11.5342    3.7291 C   0  0  0  0  0  0  0  0  0  0  0  0
   15.0652   10.6680    3.4510 C   0  0  0  0  0  0  0  0  0  0  0  0
   13.9160   12.7825    2.9244 N   0  0  0  0  0  0  0  0  0  0  0  0
 19 20  1  0  0  0
 20 21  1  0  0  0
 20 17  1  0  0  0
 20 22  1  0  0  0
  1  2  2  0  0  0
  3  4  2  0  0  0
  5  8  2  0  0  0
  6  9  2  0  0  0
  6  2  1  0  0  0
  7 10  2  0  0  0
  7 11  1  0  0  0
 12 13  2  0  0  0
 14 16  2  0  0  0
 15 11  2  0  0  0
 22 29  1  0  0  0
 23 29  1  0  0  0
 23 24  1  0  0  0
 24 25  1  0  0  0
 25 26  1  0  0  0
 26 27  1  0  0  0
 27 28  1  0  0  0
 27 29  1  0  0  0
 17  1  1  0  0  0
  1 10  1  0  0  0
  2  3  1  0  0  0
  4  8  1  0  0  0
  5  6  1  0  0  0
  7  9  1  0  0  0
 11 12  1  0  0  0
 13 16  1  0  0  0
 14 15  1  0  0  0
 17 18  1  0  0  0
M  END
> <minimizedAffinity>
-8.27876

$$$$
CHEMBL4545883


 29 32  0  0  0  0  0  0  0  0999 V2000
   15.7336   13.1625    4.9800 C   0  0  0  0  0  0  0  0  0  0  0  0
   15.1380   14.4025    4.6735 C   0  0  0  0  0  0  0  0  0  0  0  0
   15.5251   15.6612    5.1997 C   0  0  0  0  0  0  0  0  0  0  0  0
   14.8630   16.8030    4.7821 C   0  0  0  0  0  0  0  0  0  0  0  0
   13.4965   15.5637    3.4221 C   0  0  0  0  0  0  0  0  0  0  0  0
   14.0814   14.3533    3.7602 C   0  0  0  0  0  0  0  0  0  0  0  0
   14.2359   12.0845    3.5842 C   0  0  0  0  0  0  0  0  0  0  0  0
   13.8543   16.7845    3.8967 N   0  0  0  0  0  0  0  0  0  0  0  0
   13.6309   13.2188    3.2124 N   0  0  0  0  0  0  0  0  0  0  0  0
   15.2627   12.0218    4.4499 N   0  0  0  0  0  0  0  0  0  0  0  0
   13.7559   10.8260    2.9803 C   0  0  0  0  0  0  0  0  0  0  0  0
   12.6321   10.7978    2.1448 C   0  0  0  0  0  0  0  0  0  0  0  0
   12.2040    9.5977    1.6001 C   0  0  0  0  0  0  0  0  0  0  0  0
   13.8960    8.4453    2.6269 C   0  0  0  0  0  0  0  0  0  0  0  0
   14.3940    9.5991    3.2149 C   0  0  0  0  0  0  0  0  0  0  0  0
   12.8126    8.4179    1.8253 N   0  0  0  0  0  0  0  0  0  0  0  0
   16.8047   13.0985    5.8681 N   0  0  0  0  0  0  0  0  0  0  0  0
   16.5882   13.3996    6.8088 H   0  0  0  0  0  0  0  0  0  0  0  0
   18.3763   13.7966    4.0799 C   0  0  0  0  0  0  0  0  0  0  0  0
   18.2382   13.2318    5.5044 C   0  0  0  0  0  0  0  0  0  0  0  0
   18.7980   11.7895    5.4743 C   0  0  0  0  0  0  0  0  0  0  0  0
   19.0191   14.0848    6.5722 C   0  0  0  0  0  0  0  0  0  0  0  0
   20.2666   13.2303    8.4936 C   0  0  0  0  0  0  0  0  0  0  0  0
   21.4991   12.4264    8.9260 C   0  0  0  0  0  0  0  0  0  0  0  0
   22.7804   12.8663    8.2198 C   0  0  0  0  0  0  0  0  0  0  0  0
   22.6415   14.2929    7.7099 C   0  0  0  0  0  0  0  0  0  0  0  0
   21.4486   14.4266    6.7354 C   0  0  0  0  0  0  0  0  0  0  0  0
   21.9320   14.1453    5.3078 C   0  0  0  0  0  0  0  0  0  0  0  0
   20.3105   13.5236    7.0552 N   0  0  0  0  0  0  0  0  0  0  0  0
 19 20  1  0  0  0
 20 21  1  0  0  0
 20 17  1  0  0  0
 20 22  1  0  0  0
  1  2  2  0  0  0
  3  4  2  0  0  0
  5  8  2  0  0  0
  6  9  2  0  0  0
  6  2  1  0  0  0
  7 10  2  0  0  0
  7 11  1  0  0  0
 12 13  2  0  0  0
 14 16  2  0  0  0
 15 11  2  0  0  0
 22 29  1  0  0  0
 23 29  1  0  0  0
 23 24  1  0  0  0
 24 25  1  0  0  0
 25 26  1  0  0  0
 26 27  1  0  0  0
 27 28  1  0  0  0
 27 29  1  0  0  0
 17  1  1  0  0  0
  1 10  1  0  0  0
  2  3  1  0  0  0
  4  8  1  0  0  0
  5  6  1  0  0  0
  7  9  1  0  0  0
 11 12  1  0  0  0
 13 16  1  0  0  0
 14 15  1  0  0  0
 17 18  1  0  0  0
M  END
> <minimizedAffinity>
-8.25299

$$$$
CHEMBL4545883


 29 32  0  0  0  0  0  0  0  0999 V2000
   16.3822   13.0133    3.7095 C   0  0  0  0  0  0  0  0  0  0  0  0
   15.0280   12.8300    3.3650 C   0  0  0  0  0  0  0  0  0  0  0  0
   14.1484   13.8374    2.8935 C   0  0  0  0  0  0  0  0  0  0  0  0
   12.8461   13.5011    2.5657 C   0  0  0  0  0  0  0  0  0  0  0  0
   13.2206   11.3154    3.1447 C   0  0  0  0  0  0  0  0  0  0  0  0
   14.5429   11.5266    3.5030 C   0  0  0  0  0  0  0  0  0  0  0  0
   16.5520   10.7777    4.2812 C   0  0  0  0  0  0  0  0  0  0  0  0
   12.3595   12.2550    2.6765 N   0  0  0  0  0  0  0  0  0  0  0  0
   15.2846   10.5059    3.9481 N   0  0  0  0  0  0  0  0  0  0  0  0
   17.1176   11.9933    4.1817 N   0  0  0  0  0  0  0  0  0  0  0  0
   17.3850    9.6591    4.7644 C   0  0  0  0  0  0  0  0  0  0  0  0
   18.7414    9.8348    5.0666 C   0  0  0  0  0  0  0  0  0  0  0  0
   19.4965    8.7613    5.5112 C   0  0  0  0  0  0  0  0  0  0  0  0
   17.6954    7.3518    5.3908 C   0  0  0  0  0  0  0  0  0  0  0  0
   16.8654    8.3682    4.9402 C   0  0  0  0  0  0  0  0  0  0  0  0
   19.0015    7.5204    5.6786 N   0  0  0  0  0  0  0  0  0  0  0  0
   16.9717   14.2702    3.5958 N   0  0  0  0  0  0  0  0  0  0  0  0
   17.5670   14.3826    2.7863 H   0  0  0  0  0  0  0  0  0  0  0  0
   18.7667   14.9481    5.1685 C   0  0  0  0  0  0  0  0  0  0  0  0
   17.3100   15.1716    4.7263 C   0  0  0  0  0  0  0  0  0  0  0  0
   16.4080   14.7252    5.9017 C   0  0  0  0  0  0  0  0  0  0  0  0
   17.0108   16.6741    4.3650 C   0  0  0  0  0  0  0  0  0  0  0  0
   14.6455   17.2890    4.2884 C   0  0  0  0  0  0  0  0  0  0  0  0
   13.4388   17.7213    5.1305 C   0  0  0  0  0  0  0  0  0  0  0  0
   13.7597   18.8579    6.0997 C   0  0  0  0  0  0  0  0  0  0  0  0
   14.9795   19.6323    5.6230 C   0  0  0  0  0  0  0  0  0  0  0  0
   16.2130   18.7097    5.4902 C   0  0  0  0  0  0  0  0  0  0  0  0
   16.9655   18.6815    6.8258 C   0  0  0  0  0  0  0  0  0  0  0  0
   15.8784   17.3177    5.0859 N   0  0  0  0  0  0  0  0  0  0  0  0
 19 20  1  0  0  0
 20 21  1  0  0  0
 20 17  1  0  0  0
 20 22  1  0  0  0
  1  2  2  0  0  0
  3  4  2  0  0  0
  5  8  2  0  0  0
  6  9  2  0  0  0
  6  2  1  0  0  0
  7 10  2  0  0  0
  7 11  1  0  0  0
 12 13  2  0  0  0
 14 16  2  0  0  0
 15 11  2  0  0  0
 22 29  1  0  0  0
 23 29  1  0  0  0
 23 24  1  0  0  0
 24 25  1  0  0  0
 25 26  1  0  0  0
 26 27  1  0  0  0
 27 28  1  0  0  0
 27 29  1  0  0  0
 17  1  1  0  0  0
  1 10  1  0  0  0
  2  3  1  0  0  0
  4  8  1  0  0  0
  5  6  1  0  0  0
  7  9  1  0  0  0
 11 12  1  0  0  0
 13 16  1  0  0  0
 14 15  1  0  0  0
 17 18  1  0  0  0
M  END
> <minimizedAffinity>
-8.06456

$$$$
CHEMBL3715766


 25 28  0  0  0  0  0  0  0  0999 V2000
   18.8201    8.2035    6.2839 C   0  0  0  0  0  0  0  0  0  0  0  0
   17.7152    8.8048    5.4692 C   0  0  0  0  0  0  0  0  0  0  0  0
   15.9418    8.5835    4.1437 C   0  0  0  0  0  0  0  0  0  0  0  0
   15.6875    9.9433    4.1305 C   0  0  0  0  0  0  0  0  0  0  0  0
   14.4850   10.1245    3.3729 C   0  0  0  0  0  0  0  0  0  0  0  0
   14.0999    8.8761    2.8792 C   0  0  0  0  0  0  0  0  0  0  0  0
   12.9842    8.7003    2.0510 C   0  0  0  0  0  0  0  0  0  0  0  0
   12.2378    9.8383    1.7119 C   0  0  0  0  0  0  0  0  0  0  0  0
   12.5770   11.1005    2.2105 C   0  0  0  0  0  0  0  0  0  0  0  0
   13.6821   11.2405    3.0617 C   0  0  0  0  0  0  0  0  0  0  0  0
   16.5885   10.7660    4.8366 C   0  0  0  0  0  0  0  0  0  0  0  0
   16.9329    7.9499    4.7833 N   0  0  0  0  0  0  0  0  0  0  0  0
   14.9986    7.9599    3.3762 N   0  0  0  0  0  0  0  0  0  0  0  0
   17.5833   10.1494    5.5287 N   0  0  0  0  0  0  0  0  0  0  0  0
   14.9765    6.9641    3.2192 H   0  0  0  0  0  0  0  0  0  0  0  0
   15.3151   12.7155    5.4831 C   0  0  0  0  0  0  0  0  0  0  0  0
   15.3096   14.2313    5.3220 C   0  0  0  0  0  0  0  0  0  0  0  0
   15.2352   14.6000    3.8432 C   0  0  0  0  0  0  0  0  0  0  0  0
   16.1071   13.6999    2.9603 C   0  0  0  0  0  0  0  0  0  0  0  0
   17.1319   12.8869    3.7488 C   0  0  0  0  0  0  0  0  0  0  0  0
   16.5054   12.1521    4.8455 N   0  0  0  0  0  0  0  0  0  0  0  0
   11.8303   12.3402    1.8657 C   0  0  0  0  0  0  0  0  0  0  0  0
   11.0736   12.4240    0.9095 O   0  0  0  0  0  0  0  0  0  0  0  0
   11.4578   14.5697    2.4303 C   0  0  0  0  0  0  0  0  0  0  0  0
   12.0873   13.3292    2.7567 O   0  0  0  0  0  0  0  0  0  0  0  0
  1  2  1  0  0  0
  2 14  2  0  0  0
  3 12  2  0  0  0
  4  5  1  0  0  0
  4 11  2  0  0  0
  6 13  1  0  0  0
  6  7  2  0  0  0
  8  9  2  0  0  0
  9 22  1  0  0  0
 10  5  2  0  0  0
 22 25  1  0  0  0
 24 25  1  0  0  0
 11 21  1  0  0  0
 16 21  1  0  0  0
 16 17  1  0  0  0
 17 18  1  0  0  0
 18 19  1  0  0  0
 19 20  1  0  0  0
 20 21  1  0  0  0
 13  3  1  0  0  0
  2 12  1  0  0  0
  3  4  1  0  0  0
  5  6  1  0  0  0
  7  8  1  0  0  0
  9 10  1  0  0  0
 22 23  2  0  0  0
 11 14  1  0  0  0
 13 15  1  0  0  0
M  END
> <minimizedAffinity>
-9.08608

$$$$
CHEMBL3715766


 25 28  0  0  0  0  0  0  0  0999 V2000
   10.9094   11.4803    1.0020 C   0  0  0  0  0  0  0  0  0  0  0  0
   12.0966   11.0706    1.8199 C   0  0  0  0  0  0  0  0  0  0  0  0
   13.4428    9.4952    2.6301 C   0  0  0  0  0  0  0  0  0  0  0  0
   14.3044   10.4169    3.1976 C   0  0  0  0  0  0  0  0  0  0  0  0
   15.3845    9.6670    3.7665 C   0  0  0  0  0  0  0  0  0  0  0  0
   15.0959    8.3106    3.6003 C   0  0  0  0  0  0  0  0  0  0  0  0
   15.9262    7.2941    4.0890 C   0  0  0  0  0  0  0  0  0  0  0  0
   17.0893    7.6746    4.7741 C   0  0  0  0  0  0  0  0  0  0  0  0
   17.4252    9.0230    4.9349 C   0  0  0  0  0  0  0  0  0  0  0  0
   16.5892   10.0179    4.4086 C   0  0  0  0  0  0  0  0  0  0  0  0
   13.9569   11.7768    3.0674 C   0  0  0  0  0  0  0  0  0  0  0  0
   12.3262    9.7488    1.9360 N   0  0  0  0  0  0  0  0  0  0  0  0
   13.9160    8.2409    2.8952 N   0  0  0  0  0  0  0  0  0  0  0  0
   12.8494   12.0692    2.3348 N   0  0  0  0  0  0  0  0  0  0  0  0
   13.4545    7.3957    2.5959 H   0  0  0  0  0  0  0  0  0  0  0  0
   14.5184   12.9600    5.0984 C   0  0  0  0  0  0  0  0  0  0  0  0
   15.2842   14.1874    5.5789 C   0  0  0  0  0  0  0  0  0  0  0  0
   14.7130   15.4463    4.9332 C   0  0  0  0  0  0  0  0  0  0  0  0
   14.3552   15.2482    3.4558 C   0  0  0  0  0  0  0  0  0  0  0  0
   14.9711   13.9903    2.8464 C   0  0  0  0  0  0  0  0  0  0  0  0
   14.6821   12.8063    3.6527 N   0  0  0  0  0  0  0  0  0  0  0  0
   18.6359    9.4790    5.6695 C   0  0  0  0  0  0  0  0  0  0  0  0
   18.9304    9.0847    6.7883 O   0  0  0  0  0  0  0  0  0  0  0  0
   19.5195   11.6313    5.5468 C   0  0  0  0  0  0  0  0  0  0  0  0
   19.3573   10.3542    4.9268 O   0  0  0  0  0  0  0  0  0  0  0  0
  1  2  1  0  0  0
  2 14  2  0  0  0
  3 12  2  0  0  0
  4  5  1  0  0  0
  4 11  2  0  0  0
  6 13  1  0  0  0
  6  7  2  0  0  0
  8  9  2  0  0  0
  9 22  1  0  0  0
 10  5  2  0  0  0
 22 25  1  0  0  0
 24 25  1  0  0  0
 11 21  1  0  0  0
 16 21  1  0  0  0
 16 17  1  0  0  0
 17 18  1  0  0  0
 18 19  1  0  0  0
 19 20  1  0  0  0
 20 21  1  0  0  0
 13  3  1  0  0  0
  2 12  1  0  0  0
  3  4  1  0  0  0
  5  6  1  0  0  0
  7  8  1  0  0  0
  9 10  1  0  0  0
 22 23  2  0  0  0
 11 14  1  0  0  0
 13 15  1  0  0  0
M  END
> <minimizedAffinity>
-8.88510

$$$$
CHEMBL3715766


 25 28  0  0  0  0  0  0  0  0999 V2000
   20.4934   13.4098    6.1736 C   0  0  0  0  0  0  0  0  0  0  0  0
   19.3362   12.7015    5.5371 C   0  0  0  0  0  0  0  0  0  0  0  0
   18.2374   10.8281    5.0536 C   0  0  0  0  0  0  0  0  0  0  0  0
   17.1764   11.5081    4.4830 C   0  0  0  0  0  0  0  0  0  0  0  0
   16.2076   10.5176    4.1186 C   0  0  0  0  0  0  0  0  0  0  0  0
   16.7529    9.2633    4.4016 C   0  0  0  0  0  0  0  0  0  0  0  0
   16.0845    8.0654    4.1192 C   0  0  0  0  0  0  0  0  0  0  0  0
   14.8173    8.1501    3.5242 C   0  0  0  0  0  0  0  0  0  0  0  0
   14.2275    9.3891    3.2524 C   0  0  0  0  0  0  0  0  0  0  0  0
   14.9087   10.5716    3.5738 C   0  0  0  0  0  0  0  0  0  0  0  0
   17.2785   12.9129    4.4247 C   0  0  0  0  0  0  0  0  0  0  0  0
   19.3436   11.3561    5.5925 N   0  0  0  0  0  0  0  0  0  0  0  0
   17.9813    9.4877    4.9802 N   0  0  0  0  0  0  0  0  0  0  0  0
   18.3720   13.4821    4.9984 N   0  0  0  0  0  0  0  0  0  0  0  0
   18.6137    8.7795    5.3200 H   0  0  0  0  0  0  0  0  0  0  0  0
   16.4623   13.8691    2.3609 C   0  0  0  0  0  0  0  0  0  0  0  0
   15.4253   14.8605    1.8455 C   0  0  0  0  0  0  0  0  0  0  0  0
   15.6692   16.2374    2.4561 C   0  0  0  0  0  0  0  0  0  0  0  0
   16.0531   16.1721    3.9387 C   0  0  0  0  0  0  0  0  0  0  0  0
   15.7561   14.8192    4.5827 C   0  0  0  0  0  0  0  0  0  0  0  0
   16.3297   13.7194    3.8102 N   0  0  0  0  0  0  0  0  0  0  0  0
   12.8956    9.5330    2.6053 C   0  0  0  0  0  0  0  0  0  0  0  0
   12.3924    8.6664    1.9054 O   0  0  0  0  0  0  0  0  0  0  0  0
   11.7085   11.3698    1.8020 C   0  0  0  0  0  0  0  0  0  0  0  0
   12.3273   10.7239    2.9163 O   0  0  0  0  0  0  0  0  0  0  0  0
  1  2  1  0  0  0
  2 14  2  0  0  0
  3 12  2  0  0  0
  4  5  1  0  0  0
  4 11  2  0  0  0
  6 13  1  0  0  0
  6  7  2  0  0  0
  8  9  2  0  0  0
  9 22  1  0  0  0
 10  5  2  0  0  0
 22 25  1  0  0  0
 24 25  1  0  0  0
 11 21  1  0  0  0
 16 21  1  0  0  0
 16 17  1  0  0  0
 17 18  1  0  0  0
 18 19  1  0  0  0
 19 20  1  0  0  0
 20 21  1  0  0  0
 13  3  1  0  0  0
  2 12  1  0  0  0
  3  4  1  0  0  0
  5  6  1  0  0  0
  7  8  1  0  0  0
  9 10  1  0  0  0
 22 23  2  0  0  0
 11 14  1  0  0  0
 13 15  1  0  0  0
M  END
> <minimizedAffinity>
-8.72890

$$$$
CHEMBL3715766


 25 28  0  0  0  0  0  0  0  0999 V2000
   10.5808   11.4585    1.0278 C   0  0  0  0  0  0  0  0  0  0  0  0
   11.8649   11.5585    1.7941 C   0  0  0  0  0  0  0  0  0  0  0  0
   13.5469   10.6022    2.8927 C   0  0  0  0  0  0  0  0  0  0  0  0
   14.2236   11.7984    3.0506 C   0  0  0  0  0  0  0  0  0  0  0  0
   15.4621   11.4824    3.6978 C   0  0  0  0  0  0  0  0  0  0  0  0
   15.4548   10.1164    3.9887 C   0  0  0  0  0  0  0  0  0  0  0  0
   16.5010    9.4813    4.6697 C   0  0  0  0  0  0  0  0  0  0  0  0
   17.5906   10.2679    5.0709 C   0  0  0  0  0  0  0  0  0  0  0  0
   17.6455   11.6334    4.7721 C   0  0  0  0  0  0  0  0  0  0  0  0
   16.5965   12.2351    4.0628 C   0  0  0  0  0  0  0  0  0  0  0  0
   13.5946   12.9561    2.5494 C   0  0  0  0  0  0  0  0  0  0  0  0
   12.3701   10.4101    2.2834 N   0  0  0  0  0  0  0  0  0  0  0  0
   14.2831    9.6090    3.4752 N   0  0  0  0  0  0  0  0  0  0  0  0
   12.4168   12.7893    1.8908 N   0  0  0  0  0  0  0  0  0  0  0  0
   13.9941    8.6433    3.5028 H   0  0  0  0  0  0  0  0  0  0  0  0
   15.2878   14.5485    1.8880 C   0  0  0  0  0  0  0  0  0  0  0  0
   15.8104   15.9355    2.2440 C   0  0  0  0  0  0  0  0  0  0  0  0
   16.2674   15.9646    3.6995 C   0  0  0  0  0  0  0  0  0  0  0  0
   15.3281   15.1940    4.6343 C   0  0  0  0  0  0  0  0  0  0  0  0
   13.9706   14.8822    4.0073 C   0  0  0  0  0  0  0  0  0  0  0  0
   14.1165   14.2333    2.7062 N   0  0  0  0  0  0  0  0  0  0  0  0
   18.7684   12.5147    5.1917 C   0  0  0  0  0  0  0  0  0  0  0  0
   19.9340   12.1483    5.2218 O   0  0  0  0  0  0  0  0  0  0  0  0
   19.3257   14.7686    5.3852 C   0  0  0  0  0  0  0  0  0  0  0  0
   18.3240   13.7567    5.5047 O   0  0  0  0  0  0  0  0  0  0  0  0
  1  2  1  0  0  0
  2 14  2  0  0  0
  3 12  2  0  0  0
  4  5  1  0  0  0
  4 11  2  0  0  0
  6 13  1  0  0  0
  6  7  2  0  0  0
  8  9  2  0  0  0
  9 22  1  0  0  0
 10  5  2  0  0  0
 22 25  1  0  0  0
 24 25  1  0  0  0
 11 21  1  0  0  0
 16 21  1  0  0  0
 16 17  1  0  0  0
 17 18  1  0  0  0
 18 19  1  0  0  0
 19 20  1  0  0  0
 20 21  1  0  0  0
 13  3  1  0  0  0
  2 12  1  0  0  0
  3  4  1  0  0  0
  5  6  1  0  0  0
  7  8  1  0  0  0
  9 10  1  0  0  0
 22 23  2  0  0  0
 11 14  1  0  0  0
 13 15  1  0  0  0
M  END
> <minimizedAffinity>
-8.40559

$$$$
CHEMBL3715766


 25 28  0  0  0  0  0  0  0  0999 V2000
   15.6336   18.3459    4.5624 C   0  0  0  0  0  0  0  0  0  0  0  0
   15.1036   16.9868    4.2186 C   0  0  0  0  0  0  0  0  0  0  0  0
   13.5219   15.6849    3.3503 C   0  0  0  0  0  0  0  0  0  0  0  0
   14.2702   14.5338    3.5202 C   0  0  0  0  0  0  0  0  0  0  0  0
   13.5047   13.4640    2.9525 C   0  0  0  0  0  0  0  0  0  0  0  0
   12.2798   13.9902    2.5363 C   0  0  0  0  0  0  0  0  0  0  0  0
   11.2669   13.2009    1.9772 C   0  0  0  0  0  0  0  0  0  0  0  0
   11.5109   11.8265    1.8415 C   0  0  0  0  0  0  0  0  0  0  0  0
   12.7364   11.2688    2.2211 C   0  0  0  0  0  0  0  0  0  0  0  0
   13.7424   12.0894    2.7503 C   0  0  0  0  0  0  0  0  0  0  0  0
   15.5280   14.6783    4.1401 C   0  0  0  0  0  0  0  0  0  0  0  0
   13.8714   16.9353    3.6778 N   0  0  0  0  0  0  0  0  0  0  0  0
   12.3275   15.3438    2.7806 N   0  0  0  0  0  0  0  0  0  0  0  0
   15.9285   15.9403    4.4493 N   0  0  0  0  0  0  0  0  0  0  0  0
   11.6011   16.0097    2.5667 H   0  0  0  0  0  0  0  0  0  0  0  0
   17.1361   13.0632    3.3367 C   0  0  0  0  0  0  0  0  0  0  0  0
   17.9044   11.8297    3.7970 C   0  0  0  0  0  0  0  0  0  0  0  0
   16.9301   10.7356    4.2236 C   0  0  0  0  0  0  0  0  0  0  0  0
   15.7327   11.2785    5.0118 C   0  0  0  0  0  0  0  0  0  0  0  0
   15.9385   12.7036    5.5217 C   0  0  0  0  0  0  0  0  0  0  0  0
   16.3521   13.6037    4.4474 N   0  0  0  0  0  0  0  0  0  0  0  0
   13.0376    9.8157    2.1158 C   0  0  0  0  0  0  0  0  0  0  0  0
   12.6472    9.1143    1.1940 O   0  0  0  0  0  0  0  0  0  0  0  0
   14.5080    8.1825    2.8897 C   0  0  0  0  0  0  0  0  0  0  0  0
   13.8072    9.3999    3.1516 O   0  0  0  0  0  0  0  0  0  0  0  0
  1  2  1  0  0  0
  2 14  2  0  0  0
  3 12  2  0  0  0
  4  5  1  0  0  0
  4 11  2  0  0  0
  6 13  1  0  0  0
  6  7  2  0  0  0
  8  9  2  0  0  0
  9 22  1  0  0  0
 10  5  2  0  0  0
 22 25  1  0  0  0
 24 25  1  0  0  0
 11 21  1  0  0  0
 16 21  1  0  0  0
 16 17  1  0  0  0
 17 18  1  0  0  0
 18 19  1  0  0  0
 19 20  1  0  0  0
 20 21  1  0  0  0
 13  3  1  0  0  0
  2 12  1  0  0  0
  3  4  1  0  0  0
  5  6  1  0  0  0
  7  8  1  0  0  0
  9 10  1  0  0  0
 22 23  2  0  0  0
 11 14  1  0  0  0
 13 15  1  0  0  0
M  END
> <minimizedAffinity>
-8.36875

$$$$
CHEMBL3715766


 25 28  0  0  0  0  0  0  0  0999 V2000
   11.0945   15.3072    2.2499 C   0  0  0  0  0  0  0  0  0  0  0  0
   12.0922   14.2934    2.7222 C   0  0  0  0  0  0  0  0  0  0  0  0
   12.7869   12.1858    2.8843 C   0  0  0  0  0  0  0  0  0  0  0  0
   13.9781   12.5454    3.4888 C   0  0  0  0  0  0  0  0  0  0  0  0
   14.7270   11.3364    3.6624 C   0  0  0  0  0  0  0  0  0  0  0  0
   13.9266   10.2742    3.2363 C   0  0  0  0  0  0  0  0  0  0  0  0
   14.3369    8.9373    3.3152 C   0  0  0  0  0  0  0  0  0  0  0  0
   15.6062    8.6752    3.8507 C   0  0  0  0  0  0  0  0  0  0  0  0
   16.4467    9.7153    4.2614 C   0  0  0  0  0  0  0  0  0  0  0  0
   16.0199   11.0454    4.1424 C   0  0  0  0  0  0  0  0  0  0  0  0
   14.1719   13.9177    3.7467 C   0  0  0  0  0  0  0  0  0  0  0  0
   11.8036   13.0003    2.4810 N   0  0  0  0  0  0  0  0  0  0  0  0
   12.7599   10.8254    2.7577 N   0  0  0  0  0  0  0  0  0  0  0  0
   13.2089   14.7746    3.3140 N   0  0  0  0  0  0  0  0  0  0  0  0
   11.9868   10.3177    2.3557 H   0  0  0  0  0  0  0  0  0  0  0  0
   15.0484   14.8565    5.7937 C   0  0  0  0  0  0  0  0  0  0  0  0
   16.3210   15.4741    6.3617 C   0  0  0  0  0  0  0  0  0  0  0  0
   16.7038   16.7143    5.5593 C   0  0  0  0  0  0  0  0  0  0  0  0
   16.5005   16.5340    4.0507 C   0  0  0  0  0  0  0  0  0  0  0  0
   16.3220   15.0756    3.6332 C   0  0  0  0  0  0  0  0  0  0  0  0
   15.2806   14.4161    4.4180 N   0  0  0  0  0  0  0  0  0  0  0  0
   17.7928    9.4896    4.8534 C   0  0  0  0  0  0  0  0  0  0  0  0
   18.8127   10.0025    4.4168 O   0  0  0  0  0  0  0  0  0  0  0  0
   18.5911    7.5419    5.8522 C   0  0  0  0  0  0  0  0  0  0  0  0
   17.7210    8.6725    5.9329 O   0  0  0  0  0  0  0  0  0  0  0  0
  1  2  1  0  0  0
  2 14  2  0  0  0
  3 12  2  0  0  0
  4  5  1  0  0  0
  4 11  2  0  0  0
  6 13  1  0  0  0
  6  7  2  0  0  0
  8  9  2  0  0  0
  9 22  1  0  0  0
 10  5  2  0  0  0
 22 25  1  0  0  0
 24 25  1  0  0  0
 11 21  1  0  0  0
 16 21  1  0  0  0
 16 17  1  0  0  0
 17 18  1  0  0  0
 18 19  1  0  0  0
 19 20  1  0  0  0
 20 21  1  0  0  0
 13  3  1  0  0  0
  2 12  1  0  0  0
  3  4  1  0  0  0
  5  6  1  0  0  0
  7  8  1  0  0  0
  9 10  1  0  0  0
 22 23  2  0  0  0
 11 14  1  0  0  0
 13 15  1  0  0  0
M  END
> <minimizedAffinity>
-8.22182

$$$$
CHEMBL3715766


 25 28  0  0  0  0  0  0  0  0999 V2000
   15.2411   18.5084    4.1448 C   0  0  0  0  0  0  0  0  0  0  0  0
   15.1923   17.0107    4.1732 C   0  0  0  0  0  0  0  0  0  0  0  0
   14.1956   15.0926    3.6458 C   0  0  0  0  0  0  0  0  0  0  0  0
   15.2303   14.3278    4.1539 C   0  0  0  0  0  0  0  0  0  0  0  0
   14.8987   12.9614    3.8790 C   0  0  0  0  0  0  0  0  0  0  0  0
   13.6321   12.9400    3.2910 C   0  0  0  0  0  0  0  0  0  0  0  0
   12.9807   11.7514    2.9380 C   0  0  0  0  0  0  0  0  0  0  0  0
   13.6432   10.5428    3.1972 C   0  0  0  0  0  0  0  0  0  0  0  0
   14.9243   10.5264    3.7588 C   0  0  0  0  0  0  0  0  0  0  0  0
   15.5633   11.7338    4.0742 C   0  0  0  0  0  0  0  0  0  0  0  0
   16.3006   15.0228    4.7527 C   0  0  0  0  0  0  0  0  0  0  0  0
   14.1085   16.4286    3.6256 N   0  0  0  0  0  0  0  0  0  0  0  0
   13.2385   14.2514    3.1519 N   0  0  0  0  0  0  0  0  0  0  0  0
   16.2605   16.3814    4.7135 N   0  0  0  0  0  0  0  0  0  0  0  0
   12.3764   14.5698    2.7367 H   0  0  0  0  0  0  0  0  0  0  0  0
   17.7552   14.9214    6.6798 C   0  0  0  0  0  0  0  0  0  0  0  0
   18.9981   14.1989    7.1867 C   0  0  0  0  0  0  0  0  0  0  0  0
   20.1698   14.4478    6.2414 C   0  0  0  0  0  0  0  0  0  0  0  0
   19.7622   14.4084    4.7642 C   0  0  0  0  0  0  0  0  0  0  0  0
   18.3917   13.7759    4.5303 C   0  0  0  0  0  0  0  0  0  0  0  0
   17.3672   14.3870    5.3743 N   0  0  0  0  0  0  0  0  0  0  0  0
   15.6610    9.2721    4.0711 C   0  0  0  0  0  0  0  0  0  0  0  0
   15.1690    8.1590    3.9581 O   0  0  0  0  0  0  0  0  0  0  0  0
   17.3939    8.6793    5.5112 C   0  0  0  0  0  0  0  0  0  0  0  0
   16.9306    9.5366    4.4661 O   0  0  0  0  0  0  0  0  0  0  0  0
  1  2  1  0  0  0
  2 14  2  0  0  0
  3 12  2  0  0  0
  4  5  1  0  0  0
  4 11  2  0  0  0
  6 13  1  0  0  0
  6  7  2  0  0  0
  8  9  2  0  0  0
  9 22  1  0  0  0
 10  5  2  0  0  0
 22 25  1  0  0  0
 24 25  1  0  0  0
 11 21  1  0  0  0
 16 21  1  0  0  0
 16 17  1  0  0  0
 17 18  1  0  0  0
 18 19  1  0  0  0
 19 20  1  0  0  0
 20 21  1  0  0  0
 13  3  1  0  0  0
  2 12  1  0  0  0
  3  4  1  0  0  0
  5  6  1  0  0  0
  7  8  1  0  0  0
  9 10  1  0  0  0
 22 23  2  0  0  0
 11 14  1  0  0  0
 13 15  1  0  0  0
M  END
> <minimizedAffinity>
-8.18170

$$$$
CHEMBL3715766


 25 28  0  0  0  0  0  0  0  0999 V2000
   12.8191    8.5326    2.0785 C   0  0  0  0  0  0  0  0  0  0  0  0
   13.3703    9.8471    2.5414 C   0  0  0  0  0  0  0  0  0  0  0  0
   13.2322   12.0628    2.6921 C   0  0  0  0  0  0  0  0  0  0  0  0
   14.3477   12.1526    3.5054 C   0  0  0  0  0  0  0  0  0  0  0  0
   14.4836   13.5347    3.8576 C   0  0  0  0  0  0  0  0  0  0  0  0
   13.4962   14.2479    3.1744 C   0  0  0  0  0  0  0  0  0  0  0  0
   13.3753   15.6410    3.2548 C   0  0  0  0  0  0  0  0  0  0  0  0
   14.2960   16.3304    4.0572 C   0  0  0  0  0  0  0  0  0  0  0  0
   15.2806   15.6468    4.7785 C   0  0  0  0  0  0  0  0  0  0  0  0
   15.3580   14.2491    4.7013 C   0  0  0  0  0  0  0  0  0  0  0  0
   15.0211   10.9490    3.7970 C   0  0  0  0  0  0  0  0  0  0  0  0
   12.6935   10.9518    2.1740 N   0  0  0  0  0  0  0  0  0  0  0  0
   12.7453   13.3228    2.4856 N   0  0  0  0  0  0  0  0  0  0  0  0
   14.4766    9.7989    3.3177 N   0  0  0  0  0  0  0  0  0  0  0  0
   11.9392   13.5226    1.9136 H   0  0  0  0  0  0  0  0  0  0  0  0
   17.3401   11.6088    3.9612 C   0  0  0  0  0  0  0  0  0  0  0  0
   18.5793   11.3720    4.8167 C   0  0  0  0  0  0  0  0  0  0  0  0
   18.9397    9.8893    4.8163 C   0  0  0  0  0  0  0  0  0  0  0  0
   17.7110    8.9776    4.9097 C   0  0  0  0  0  0  0  0  0  0  0  0
   16.4450    9.7097    5.3505 C   0  0  0  0  0  0  0  0  0  0  0  0
   16.1978   10.8950    4.5324 N   0  0  0  0  0  0  0  0  0  0  0  0
   16.2920   16.3322    5.6275 C   0  0  0  0  0  0  0  0  0  0  0  0
   17.4877   16.3381    5.3744 O   0  0  0  0  0  0  0  0  0  0  0  0
   15.9000   18.3675    6.6915 C   0  0  0  0  0  0  0  0  0  0  0  0
   15.7061   16.9519    6.6814 O   0  0  0  0  0  0  0  0  0  0  0  0
  1  2  1  0  0  0
  2 14  2  0  0  0
  3 12  2  0  0  0
  4  5  1  0  0  0
  4 11  2  0  0  0
  6 13  1  0  0  0
  6  7  2  0  0  0
  8  9  2  0  0  0
  9 22  1  0  0  0
 10  5  2  0  0  0
 22 25  1  0  0  0
 24 25  1  0  0  0
 11 21  1  0  0  0
 16 21  1  0  0  0
 16 17  1  0  0  0
 17 18  1  0  0  0
 18 19  1  0  0  0
 19 20  1  0  0  0
 20 21  1  0  0  0
 13  3  1  0  0  0
  2 12  1  0  0  0
  3  4  1  0  0  0
  5  6  1  0  0  0
  7  8  1  0  0  0
  9 10  1  0  0  0
 22 23  2  0  0  0
 11 14  1  0  0  0
 13 15  1  0  0  0
M  END
> <minimizedAffinity>
-8.06307

$$$$
CHEMBL3715766


 25 28  0  0  0  0  0  0  0  0999 V2000
   20.1558   15.4728    7.6359 C   0  0  0  0  0  0  0  0  0  0  0  0
   19.1272   14.7500    6.8200 C   0  0  0  0  0  0  0  0  0  0  0  0
   18.3783   12.8955    5.8451 C   0  0  0  0  0  0  0  0  0  0  0  0
   17.1887   13.4877    5.4604 C   0  0  0  0  0  0  0  0  0  0  0  0
   16.4078   12.4623    4.8349 C   0  0  0  0  0  0  0  0  0  0  0  0
   17.1869   11.3043    4.7840 C   0  0  0  0  0  0  0  0  0  0  0  0
   16.7426   10.1179    4.1868 C   0  0  0  0  0  0  0  0  0  0  0  0
   15.4603   10.1140    3.6188 C   0  0  0  0  0  0  0  0  0  0  0  0
   14.6408   11.2463    3.6760 C   0  0  0  0  0  0  0  0  0  0  0  0
   15.1020   12.4102    4.3068 C   0  0  0  0  0  0  0  0  0  0  0  0
   17.0258   14.8519    5.7762 C   0  0  0  0  0  0  0  0  0  0  0  0
   19.3866   13.4635    6.5186 N   0  0  0  0  0  0  0  0  0  0  0  0
   18.3731   11.5976    5.4173 N   0  0  0  0  0  0  0  0  0  0  0  0
   18.0153   15.4473    6.4939 N   0  0  0  0  0  0  0  0  0  0  0  0
   19.1383   10.9580    5.5664 H   0  0  0  0  0  0  0  0  0  0  0  0
   16.1808   16.6589    4.4121 C   0  0  0  0  0  0  0  0  0  0  0  0
   14.9048   17.4540    4.1606 C   0  0  0  0  0  0  0  0  0  0  0  0
   14.4502   18.1346    5.4484 C   0  0  0  0  0  0  0  0  0  0  0  0
   14.6116   17.2411    6.6834 C   0  0  0  0  0  0  0  0  0  0  0  0
   14.8312   15.7686    6.3418 C   0  0  0  0  0  0  0  0  0  0  0  0
   15.9213   15.5965    5.3840 N   0  0  0  0  0  0  0  0  0  0  0  0
   13.2819   11.2998    3.0725 C   0  0  0  0  0  0  0  0  0  0  0  0
   12.4215   10.4569    3.2804 O   0  0  0  0  0  0  0  0  0  0  0  0
   11.7787   12.6655    1.9309 C   0  0  0  0  0  0  0  0  0  0  0  0
   13.1344   12.4026    2.2979 O   0  0  0  0  0  0  0  0  0  0  0  0
  1  2  1  0  0  0
  2 14  2  0  0  0
  3 12  2  0  0  0
  4  5  1  0  0  0
  4 11  2  0  0  0
  6 13  1  0  0  0
  6  7  2  0  0  0
  8  9  2  0  0  0
  9 22  1  0  0  0
 10  5  2  0  0  0
 22 25  1  0  0  0
 24 25  1  0  0  0
 11 21  1  0  0  0
 16 21  1  0  0  0
 16 17  1  0  0  0
 17 18  1  0  0  0
 18 19  1  0  0  0
 19 20  1  0  0  0
 20 21  1  0  0  0
 13  3  1  0  0  0
  2 12  1  0  0  0
  3  4  1  0  0  0
  5  6  1  0  0  0
  7  8  1  0  0  0
  9 10  1  0  0  0
 22 23  2  0  0  0
 11 14  1  0  0  0
 13 15  1  0  0  0
M  END
> <minimizedAffinity>
-7.70520

$$$$
CHEMBL3669559


 33 38  0  0  0  0  0  0  0  0999 V2000
   16.5497   16.3283    3.1636 O   0  0  0  0  0  0  0  0  0  0  0  0
   16.0976   16.8045    4.2032 C   0  0  0  0  0  0  0  0  0  0  0  0
   16.1142   18.8709    5.5534 C   0  0  0  0  0  0  0  0  0  0  0  0
   14.8241   18.4648    6.2410 C   0  0  0  0  0  0  0  0  0  0  0  0
   13.9906   17.5709    5.3266 C   0  0  0  0  0  0  0  0  0  0  0  0
   14.7764   16.3265    4.8539 C   0  0  0  0  0  0  0  0  0  0  0  0
   15.1224   15.4072    6.0643 C   0  0  0  0  0  0  0  0  0  0  0  0
   14.7230   13.9416    5.8781 C   0  0  0  0  0  0  0  0  0  0  0  0
   14.5529   14.2119    3.4118 C   0  0  0  0  0  0  0  0  0  0  0  0
   13.9184   15.5466    3.8312 C   0  0  0  0  0  0  0  0  0  0  0  0
   16.7995   17.7527    4.9355 N   0  0  0  0  0  0  0  0  0  0  0  0
   15.1009   13.4922    4.5487 N   0  0  0  0  0  0  0  0  0  0  0  0
   15.8966   12.3628    4.4144 C   0  0  0  0  0  0  0  0  0  0  0  0
   18.0564   11.4385    4.5901 C   0  0  0  0  0  0  0  0  0  0  0  0
   16.4650   10.0926    3.8769 C   0  0  0  0  0  0  0  0  0  0  0  0
   14.5683    9.1317    3.1820 C   0  0  0  0  0  0  0  0  0  0  0  0
   14.2801   10.4365    3.5235 C   0  0  0  0  0  0  0  0  0  0  0  0
   15.4826   11.0753    3.9680 C   0  0  0  0  0  0  0  0  0  0  0  0
   17.2228   12.4830    4.7313 N   0  0  0  0  0  0  0  0  0  0  0  0
   17.7668   10.2021    4.1706 N   0  0  0  0  0  0  0  0  0  0  0  0
   15.9014    8.9393    3.4062 N   0  0  0  0  0  0  0  0  0  0  0  0
   16.4219    8.0901    3.2443 H   0  0  0  0  0  0  0  0  0  0  0  0
   18.2532   17.7894    4.8268 C   0  0  0  0  0  0  0  0  0  0  0  0
   18.7899   17.0713    6.0292 C   0  0  0  0  0  0  0  0  0  0  0  0
   18.5810   17.4044    7.3565 C   0  0  0  0  0  0  0  0  0  0  0  0
   19.7102   15.4554    7.3535 C   0  0  0  0  0  0  0  0  0  0  0  0
   20.3485   14.2627    7.7161 C   0  0  0  0  0  0  0  0  0  0  0  0
   20.8402   13.4522    6.6893 C   0  0  0  0  0  0  0  0  0  0  0  0
   20.6968   13.8215    5.3551 C   0  0  0  0  0  0  0  0  0  0  0  0
   20.0405   15.0072    5.0101 C   0  0  0  0  0  0  0  0  0  0  0  0
   19.5374   15.8463    6.0256 C   0  0  0  0  0  0  0  0  0  0  0  0
   19.1275   16.4219    8.1377 N   0  0  0  0  0  0  0  0  0  0  0  0
   19.0838   16.3851    9.1460 H   0  0  0  0  0  0  0  0  0  0  0  0
  2 11  1  0  0  0
 23 11  1  0  0  0
 23 24  1  0  0  0
 25 32  1  0  0  0
 27 28  2  0  0  0
 29 30  2  0  0  0
 31 24  1  0  0  0
 31 26  2  0  0  0
  3 11  1  0  0  0
  3  4  1  0  0  0
  4  5  1  0  0  0
  5  6  1  0  0  0
  6  7  1  0  0  0
  6  2  1  0  0  0
  7  8  1  0  0  0
  8 12  1  0  0  0
  9 12  1  0  0  0
  9 10  1  0  0  0
 10  6  1  0  0  0
 14 19  2  0  0  0
 15 20  2  0  0  0
 15 21  1  0  0  0
 17 18  1  0  0  0
 18 13  2  0  0  0
 32 26  1  0  0  0
 12 13  1  0  0  0
 21 16  1  0  0  0
  2  1  2  0  0  0
 24 25  2  0  0  0
 26 27  1  0  0  0
 28 29  1  0  0  0
 30 31  1  0  0  0
 13 19  1  0  0  0
 14 20  1  0  0  0
 16 17  2  0  0  0
 18 15  1  0  0  0
 32 33  1  0  0  0
 21 22  1  0  0  0
M  END
> <minimizedAffinity>
-9.15031

$$$$
CHEMBL3669559


 33 38  0  0  0  0  0  0  0  0999 V2000
   15.0390   13.6136    3.4473 O   0  0  0  0  0  0  0  0  0  0  0  0
   15.9546   13.0565    4.0502 C   0  0  0  0  0  0  0  0  0  0  0  0
   16.9534   10.8305    4.4246 C   0  0  0  0  0  0  0  0  0  0  0  0
   18.2696   11.4606    4.8403 C   0  0  0  0  0  0  0  0  0  0  0  0
   18.4482   12.8178    4.1652 C   0  0  0  0  0  0  0  0  0  0  0  0
   17.2670   13.7722    4.4536 C   0  0  0  0  0  0  0  0  0  0  0  0
   17.2002   14.1143    5.9729 C   0  0  0  0  0  0  0  0  0  0  0  0
   17.1325   15.6121    6.2801 C   0  0  0  0  0  0  0  0  0  0  0  0
   16.4059   16.1424    3.9616 C   0  0  0  0  0  0  0  0  0  0  0  0
   17.4536   15.0684    3.6316 C   0  0  0  0  0  0  0  0  0  0  0  0
   15.8366   11.7511    4.5085 N   0  0  0  0  0  0  0  0  0  0  0  0
   16.1788   16.2555    5.3921 N   0  0  0  0  0  0  0  0  0  0  0  0
   15.1457   17.0071    5.9351 C   0  0  0  0  0  0  0  0  0  0  0  0
   13.3956   17.1092    7.5087 C   0  0  0  0  0  0  0  0  0  0  0  0
   13.6435   18.8618    6.1975 C   0  0  0  0  0  0  0  0  0  0  0  0
   14.2510   20.3678    4.6592 C   0  0  0  0  0  0  0  0  0  0  0  0
   15.1069   19.2912    4.5570 C   0  0  0  0  0  0  0  0  0  0  0  0
   14.7341   18.3093    5.5309 C   0  0  0  0  0  0  0  0  0  0  0  0
   14.4312   16.4506    6.9614 N   0  0  0  0  0  0  0  0  0  0  0  0
   12.9286   18.3218    7.1926 N   0  0  0  0  0  0  0  0  0  0  0  0
   13.3692   20.0905    5.6642 N   0  0  0  0  0  0  0  0  0  0  0  0
   12.6110   20.6778    5.9778 H   0  0  0  0  0  0  0  0  0  0  0  0
   14.5071   11.2231    4.7911 C   0  0  0  0  0  0  0  0  0  0  0  0
   14.1176   10.3898    3.6066 C   0  0  0  0  0  0  0  0  0  0  0  0
   14.6063    9.1374    3.2761 C   0  0  0  0  0  0  0  0  0  0  0  0
   12.9613    9.5932    1.8064 C   0  0  0  0  0  0  0  0  0  0  0  0
   12.0015    9.5265    0.7888 C   0  0  0  0  0  0  0  0  0  0  0  0
   11.1590   10.6285    0.6188 C   0  0  0  0  0  0  0  0  0  0  0  0
   11.2733   11.7495    1.4356 C   0  0  0  0  0  0  0  0  0  0  0  0
   12.2253   11.7918    2.4591 C   0  0  0  0  0  0  0  0  0  0  0  0
   13.0913   10.6956    2.6513 C   0  0  0  0  0  0  0  0  0  0  0  0
   13.8967    8.6680    2.2036 N   0  0  0  0  0  0  0  0  0  0  0  0
   14.0124    7.7590    1.7790 H   0  0  0  0  0  0  0  0  0  0  0  0
  2 11  1  0  0  0
 23 11  1  0  0  0
 23 24  1  0  0  0
 25 32  1  0  0  0
 27 28  2  0  0  0
 29 30  2  0  0  0
 31 24  1  0  0  0
 31 26  2  0  0  0
  3 11  1  0  0  0
  3  4  1  0  0  0
  4  5  1  0  0  0
  5  6  1  0  0  0
  6  7  1  0  0  0
  6  2  1  0  0  0
  7  8  1  0  0  0
  8 12  1  0  0  0
  9 12  1  0  0  0
  9 10  1  0  0  0
 10  6  1  0  0  0
 14 19  2  0  0  0
 15 20  2  0  0  0
 15 21  1  0  0  0
 17 18  1  0  0  0
 18 13  2  0  0  0
 32 26  1  0  0  0
 12 13  1  0  0  0
 21 16  1  0  0  0
  2  1  2  0  0  0
 24 25  2  0  0  0
 26 27  1  0  0  0
 28 29  1  0  0  0
 30 31  1  0  0  0
 13 19  1  0  0  0
 14 20  1  0  0  0
 16 17  2  0  0  0
 18 15  1  0  0  0
 32 33  1  0  0  0
 21 22  1  0  0  0
M  END
> <minimizedAffinity>
-8.94365

$$$$
CHEMBL3669559


 33 38  0  0  0  0  0  0  0  0999 V2000
   17.2361   14.2131    3.0500 O   0  0  0  0  0  0  0  0  0  0  0  0
   17.0833   14.7204    4.1597 C   0  0  0  0  0  0  0  0  0  0  0  0
   18.1124   16.3506    5.7012 C   0  0  0  0  0  0  0  0  0  0  0  0
   16.7954   16.5323    6.4323 C   0  0  0  0  0  0  0  0  0  0  0  0
   15.6224   16.2612    5.4939 C   0  0  0  0  0  0  0  0  0  0  0  0
   15.7039   14.8587    4.8492 C   0  0  0  0  0  0  0  0  0  0  0  0
   15.5784   13.7497    5.9374 C   0  0  0  0  0  0  0  0  0  0  0  0
   14.5187   12.6872    5.6363 C   0  0  0  0  0  0  0  0  0  0  0  0
   14.4691   13.2964    3.2257 C   0  0  0  0  0  0  0  0  0  0  0  0
   14.5631   14.7115    3.8161 C   0  0  0  0  0  0  0  0  0  0  0  0
   18.1649   15.1231    4.9315 N   0  0  0  0  0  0  0  0  0  0  0  0
   14.6159   12.2732    4.2467 N   0  0  0  0  0  0  0  0  0  0  0  0
   14.7658   10.9257    3.9485 C   0  0  0  0  0  0  0  0  0  0  0  0
   16.0529    8.9733    4.2329 C   0  0  0  0  0  0  0  0  0  0  0  0
   14.2922    8.8086    2.9195 C   0  0  0  0  0  0  0  0  0  0  0  0
   12.4602    9.1255    1.6757 C   0  0  0  0  0  0  0  0  0  0  0  0
   12.7548   10.3171    2.3046 C   0  0  0  0  0  0  0  0  0  0  0  0
   13.9295   10.1402    3.1049 C   0  0  0  0  0  0  0  0  0  0  0  0
   15.8286   10.2694    4.5081 N   0  0  0  0  0  0  0  0  0  0  0  0
   15.3364    8.1596    3.4500 N   0  0  0  0  0  0  0  0  0  0  0  0
   13.4042    8.2184    2.0636 N   0  0  0  0  0  0  0  0  0  0  0  0
   13.4701    7.2557    1.7684 H   0  0  0  0  0  0  0  0  0  0  0  0
   19.4542   14.4730    4.7279 C   0  0  0  0  0  0  0  0  0  0  0  0
   19.5516   13.3855    5.7561 C   0  0  0  0  0  0  0  0  0  0  0  0
   19.2307   12.0498    5.5842 C   0  0  0  0  0  0  0  0  0  0  0  0
   20.1240   12.2358    7.6435 C   0  0  0  0  0  0  0  0  0  0  0  0
   20.6530   11.9820    8.9152 C   0  0  0  0  0  0  0  0  0  0  0  0
   21.1488   13.0690    9.6401 C   0  0  0  0  0  0  0  0  0  0  0  0
   21.1167   14.3561    9.1117 C   0  0  0  0  0  0  0  0  0  0  0  0
   20.6015   14.5890    7.8326 C   0  0  0  0  0  0  0  0  0  0  0  0
   20.0911   13.5114    7.0798 C   0  0  0  0  0  0  0  0  0  0  0  0
   19.5897   11.3718    6.7180 N   0  0  0  0  0  0  0  0  0  0  0  0
   19.5098   10.3740    6.8522 H   0  0  0  0  0  0  0  0  0  0  0  0
  2 11  1  0  0  0
 23 11  1  0  0  0
 23 24  1  0  0  0
 25 32  1  0  0  0
 27 28  2  0  0  0
 29 30  2  0  0  0
 31 24  1  0  0  0
 31 26  2  0  0  0
  3 11  1  0  0  0
  3  4  1  0  0  0
  4  5  1  0  0  0
  5  6  1  0  0  0
  6  7  1  0  0  0
  6  2  1  0  0  0
  7  8  1  0  0  0
  8 12  1  0  0  0
  9 12  1  0  0  0
  9 10  1  0  0  0
 10  6  1  0  0  0
 14 19  2  0  0  0
 15 20  2  0  0  0
 15 21  1  0  0  0
 17 18  1  0  0  0
 18 13  2  0  0  0
 32 26  1  0  0  0
 12 13  1  0  0  0
 21 16  1  0  0  0
  2  1  2  0  0  0
 24 25  2  0  0  0
 26 27  1  0  0  0
 28 29  1  0  0  0
 30 31  1  0  0  0
 13 19  1  0  0  0
 14 20  1  0  0  0
 16 17  2  0  0  0
 18 15  1  0  0  0
 32 33  1  0  0  0
 21 22  1  0  0  0
M  END
> <minimizedAffinity>
-8.93623

$$$$
CHEMBL3669559


 33 38  0  0  0  0  0  0  0  0999 V2000
   15.0965   15.3444    6.4820 O   0  0  0  0  0  0  0  0  0  0  0  0
   15.4714   15.1585    5.3257 C   0  0  0  0  0  0  0  0  0  0  0  0
   14.6692   14.3444    3.1379 C   0  0  0  0  0  0  0  0  0  0  0  0
   15.7783   15.0923    2.4219 C   0  0  0  0  0  0  0  0  0  0  0  0
   16.1993   16.3197    3.2257 C   0  0  0  0  0  0  0  0  0  0  0  0
   16.6239   15.9553    4.6666 C   0  0  0  0  0  0  0  0  0  0  0  0
   17.9006   15.0612    4.6498 C   0  0  0  0  0  0  0  0  0  0  0  0
   19.0322   15.5599    5.5516 C   0  0  0  0  0  0  0  0  0  0  0  0
   17.4759   16.9956    6.8559 C   0  0  0  0  0  0  0  0  0  0  0  0
   16.9046   17.2560    5.4538 C   0  0  0  0  0  0  0  0  0  0  0  0
   14.9472   14.1366    4.5455 N   0  0  0  0  0  0  0  0  0  0  0  0
   18.4954   15.9605    6.8412 N   0  0  0  0  0  0  0  0  0  0  0  0
   19.0225   15.4041    7.9986 C   0  0  0  0  0  0  0  0  0  0  0  0
   19.5483   15.7126   10.2741 C   0  0  0  0  0  0  0  0  0  0  0  0
   20.0865   13.7658    9.3949 C   0  0  0  0  0  0  0  0  0  0  0  0
   20.4629   11.9923    8.0848 C   0  0  0  0  0  0  0  0  0  0  0  0
   19.8297   12.9525    7.3238 C   0  0  0  0  0  0  0  0  0  0  0  0
   19.5819   14.1021    8.1414 C   0  0  0  0  0  0  0  0  0  0  0  0
   19.0208   16.1766    9.1285 N   0  0  0  0  0  0  0  0  0  0  0  0
   20.1029   14.5174   10.5029 N   0  0  0  0  0  0  0  0  0  0  0  0
   20.6083   12.5032    9.3427 N   0  0  0  0  0  0  0  0  0  0  0  0
   21.0438   12.0469   10.1304 H   0  0  0  0  0  0  0  0  0  0  0  0
   14.3961   12.9597    5.2069 C   0  0  0  0  0  0  0  0  0  0  0  0
   15.0286   11.7670    4.5538 C   0  0  0  0  0  0  0  0  0  0  0  0
   16.3374   11.3392    4.6970 C   0  0  0  0  0  0  0  0  0  0  0  0
   15.2842    9.7804    3.4582 C   0  0  0  0  0  0  0  0  0  0  0  0
   14.9508    8.6318    2.7296 C   0  0  0  0  0  0  0  0  0  0  0  0
   13.6401    8.5210    2.2575 C   0  0  0  0  0  0  0  0  0  0  0  0
   12.7029    9.5192    2.5068 C   0  0  0  0  0  0  0  0  0  0  0  0
   13.0480   10.6512    3.2519 C   0  0  0  0  0  0  0  0  0  0  0  0
   14.3644   10.7913    3.7376 C   0  0  0  0  0  0  0  0  0  0  0  0
   16.4726   10.1427    4.0455 N   0  0  0  0  0  0  0  0  0  0  0  0
   17.3119    9.5813    4.0228 H   0  0  0  0  0  0  0  0  0  0  0  0
  2 11  1  0  0  0
 23 11  1  0  0  0
 23 24  1  0  0  0
 25 32  1  0  0  0
 27 28  2  0  0  0
 29 30  2  0  0  0
 31 24  1  0  0  0
 31 26  2  0  0  0
  3 11  1  0  0  0
  3  4  1  0  0  0
  4  5  1  0  0  0
  5  6  1  0  0  0
  6  7  1  0  0  0
  6  2  1  0  0  0
  7  8  1  0  0  0
  8 12  1  0  0  0
  9 12  1  0  0  0
  9 10  1  0  0  0
 10  6  1  0  0  0
 14 19  2  0  0  0
 15 20  2  0  0  0
 15 21  1  0  0  0
 17 18  1  0  0  0
 18 13  2  0  0  0
 32 26  1  0  0  0
 12 13  1  0  0  0
 21 16  1  0  0  0
  2  1  2  0  0  0
 24 25  2  0  0  0
 26 27  1  0  0  0
 28 29  1  0  0  0
 30 31  1  0  0  0
 13 19  1  0  0  0
 14 20  1  0  0  0
 16 17  2  0  0  0
 18 15  1  0  0  0
 32 33  1  0  0  0
 21 22  1  0  0  0
M  END
> <minimizedAffinity>
-8.81025

$$$$
CHEMBL3669559


 33 38  0  0  0  0  0  0  0  0999 V2000
   15.8287   16.4145    7.0575 O   0  0  0  0  0  0  0  0  0  0  0  0
   16.4394   17.3261    6.5025 C   0  0  0  0  0  0  0  0  0  0  0  0
   16.1509   19.6435    5.7027 C   0  0  0  0  0  0  0  0  0  0  0  0
   17.6507   19.8709    5.7362 C   0  0  0  0  0  0  0  0  0  0  0  0
   18.3021   18.9801    6.7907 C   0  0  0  0  0  0  0  0  0  0  0  0
   17.9780   17.4847    6.5712 C   0  0  0  0  0  0  0  0  0  0  0  0
   18.5900   16.9851    5.2275 C   0  0  0  0  0  0  0  0  0  0  0  0
   19.4349   15.7151    5.3524 C   0  0  0  0  0  0  0  0  0  0  0  0
   18.4142   15.1489    7.5483 C   0  0  0  0  0  0  0  0  0  0  0  0
   18.5565   16.6654    7.7479 C   0  0  0  0  0  0  0  0  0  0  0  0
   15.7945   18.2384    5.6780 N   0  0  0  0  0  0  0  0  0  0  0  0
   18.7500   14.7475    6.1930 N   0  0  0  0  0  0  0  0  0  0  0  0
   18.5144   13.4698    5.7041 C   0  0  0  0  0  0  0  0  0  0  0  0
   19.4432   11.4109    5.0347 C   0  0  0  0  0  0  0  0  0  0  0  0
   17.2587   11.6155    4.8378 C   0  0  0  0  0  0  0  0  0  0  0  0
   15.1247   12.2847    4.7940 C   0  0  0  0  0  0  0  0  0  0  0  0
   15.8805   13.3173    5.3086 C   0  0  0  0  0  0  0  0  0  0  0  0
   17.2543   12.9135    5.3421 C   0  0  0  0  0  0  0  0  0  0  0  0
   19.5961   12.6478    5.5374 N   0  0  0  0  0  0  0  0  0  0  0  0
   18.3110   10.8074    4.6574 N   0  0  0  0  0  0  0  0  0  0  0  0
   15.9793   11.2566    4.5159 N   0  0  0  0  0  0  0  0  0  0  0  0
   15.7343   10.3618    4.1191 H   0  0  0  0  0  0  0  0  0  0  0  0
   14.5602   17.8356    5.0143 C   0  0  0  0  0  0  0  0  0  0  0  0
   14.9627   17.0228    3.8199 C   0  0  0  0  0  0  0  0  0  0  0  0
   16.1315   17.1455    3.0882 C   0  0  0  0  0  0  0  0  0  0  0  0
   15.0450   15.3517    2.2667 C   0  0  0  0  0  0  0  0  0  0  0  0
   14.6819   14.1980    1.5605 C   0  0  0  0  0  0  0  0  0  0  0  0
   13.4637   13.5952    1.8856 C   0  0  0  0  0  0  0  0  0  0  0  0
   12.6448   14.1260    2.8778 C   0  0  0  0  0  0  0  0  0  0  0  0
   13.0314   15.2683    3.5858 C   0  0  0  0  0  0  0  0  0  0  0  0
   14.2538   15.8997    3.2765 C   0  0  0  0  0  0  0  0  0  0  0  0
   16.1725   16.1313    2.1696 N   0  0  0  0  0  0  0  0  0  0  0  0
   16.9339   15.9520    1.5308 H   0  0  0  0  0  0  0  0  0  0  0  0
  2 11  1  0  0  0
 23 11  1  0  0  0
 23 24  1  0  0  0
 25 32  1  0  0  0
 27 28  2  0  0  0
 29 30  2  0  0  0
 31 24  1  0  0  0
 31 26  2  0  0  0
  3 11  1  0  0  0
  3  4  1  0  0  0
  4  5  1  0  0  0
  5  6  1  0  0  0
  6  7  1  0  0  0
  6  2  1  0  0  0
  7  8  1  0  0  0
  8 12  1  0  0  0
  9 12  1  0  0  0
  9 10  1  0  0  0
 10  6  1  0  0  0
 14 19  2  0  0  0
 15 20  2  0  0  0
 15 21  1  0  0  0
 17 18  1  0  0  0
 18 13  2  0  0  0
 32 26  1  0  0  0
 12 13  1  0  0  0
 21 16  1  0  0  0
  2  1  2  0  0  0
 24 25  2  0  0  0
 26 27  1  0  0  0
 28 29  1  0  0  0
 30 31  1  0  0  0
 13 19  1  0  0  0
 14 20  1  0  0  0
 16 17  2  0  0  0
 18 15  1  0  0  0
 32 33  1  0  0  0
 21 22  1  0  0  0
M  END
> <minimizedAffinity>
-8.68464

$$$$
CHEMBL3669559


 33 38  0  0  0  0  0  0  0  0999 V2000
   15.7594   14.1398    6.6422 O   0  0  0  0  0  0  0  0  0  0  0  0
   16.6911   14.7306    6.0990 C   0  0  0  0  0  0  0  0  0  0  0  0
   18.3784   16.4830    6.5169 C   0  0  0  0  0  0  0  0  0  0  0  0
   19.2530   15.9461    5.3993 C   0  0  0  0  0  0  0  0  0  0  0  0
   19.0194   14.4494    5.2112 C   0  0  0  0  0  0  0  0  0  0  0  0
   17.5318   14.1199    4.9511 C   0  0  0  0  0  0  0  0  0  0  0  0
   17.0618   14.7458    3.6030 C   0  0  0  0  0  0  0  0  0  0  0  0
   16.3713   13.7609    2.6568 C   0  0  0  0  0  0  0  0  0  0  0  0
   15.9357   12.1564    4.5062 C   0  0  0  0  0  0  0  0  0  0  0  0
   17.3557   12.5845    4.9063 C   0  0  0  0  0  0  0  0  0  0  0  0
   16.9996   16.0477    6.4119 N   0  0  0  0  0  0  0  0  0  0  0  0
   15.4243   12.9453    3.3985 N   0  0  0  0  0  0  0  0  0  0  0  0
   14.1018   12.8908    2.9804 C   0  0  0  0  0  0  0  0  0  0  0  0
   12.0989   14.0746    2.6107 C   0  0  0  0  0  0  0  0  0  0  0  0
   12.0480   11.9077    2.2182 C   0  0  0  0  0  0  0  0  0  0  0  0
   12.4616    9.7216    1.9860 C   0  0  0  0  0  0  0  0  0  0  0  0
   13.6272   10.3299    2.4027 C   0  0  0  0  0  0  0  0  0  0  0  0
   13.3856   11.7326    2.5634 C   0  0  0  0  0  0  0  0  0  0  0  0
   13.3937   14.0621    2.9702 N   0  0  0  0  0  0  0  0  0  0  0  0
   11.3415   13.0451    2.2174 N   0  0  0  0  0  0  0  0  0  0  0  0
   11.5124   10.6971    1.8762 N   0  0  0  0  0  0  0  0  0  0  0  0
   10.5498   10.5710    1.6009 H   0  0  0  0  0  0  0  0  0  0  0  0
   15.9458   16.9121    6.9302 C   0  0  0  0  0  0  0  0  0  0  0  0
   15.5353   17.8098    5.8010 C   0  0  0  0  0  0  0  0  0  0  0  0
   14.5031   17.5956    4.9038 C   0  0  0  0  0  0  0  0  0  0  0  0
   15.3149   19.6515    4.4701 C   0  0  0  0  0  0  0  0  0  0  0  0
   15.5300   20.9417    3.9697 C   0  0  0  0  0  0  0  0  0  0  0  0
   16.5656   21.6918    4.5337 C   0  0  0  0  0  0  0  0  0  0  0  0
   17.3514   21.1705    5.5573 C   0  0  0  0  0  0  0  0  0  0  0  0
   17.1109   19.8869    6.0577 C   0  0  0  0  0  0  0  0  0  0  0  0
   16.0749   19.1061    5.5050 C   0  0  0  0  0  0  0  0  0  0  0  0
   14.3752   18.7115    4.1209 N   0  0  0  0  0  0  0  0  0  0  0  0
   13.6720   18.8484    3.4091 H   0  0  0  0  0  0  0  0  0  0  0  0
  2 11  1  0  0  0
 23 11  1  0  0  0
 23 24  1  0  0  0
 25 32  1  0  0  0
 27 28  2  0  0  0
 29 30  2  0  0  0
 31 24  1  0  0  0
 31 26  2  0  0  0
  3 11  1  0  0  0
  3  4  1  0  0  0
  4  5  1  0  0  0
  5  6  1  0  0  0
  6  7  1  0  0  0
  6  2  1  0  0  0
  7  8  1  0  0  0
  8 12  1  0  0  0
  9 12  1  0  0  0
  9 10  1  0  0  0
 10  6  1  0  0  0
 14 19  2  0  0  0
 15 20  2  0  0  0
 15 21  1  0  0  0
 17 18  1  0  0  0
 18 13  2  0  0  0
 32 26  1  0  0  0
 12 13  1  0  0  0
 21 16  1  0  0  0
  2  1  2  0  0  0
 24 25  2  0  0  0
 26 27  1  0  0  0
 28 29  1  0  0  0
 30 31  1  0  0  0
 13 19  1  0  0  0
 14 20  1  0  0  0
 16 17  2  0  0  0
 18 15  1  0  0  0
 32 33  1  0  0  0
 21 22  1  0  0  0
M  END
> <minimizedAffinity>
-8.58052

$$$$
CHEMBL3669559


 33 38  0  0  0  0  0  0  0  0999 V2000
   15.6904   16.8107    7.1251 O   0  0  0  0  0  0  0  0  0  0  0  0
   15.8476   17.6717    6.2613 C   0  0  0  0  0  0  0  0  0  0  0  0
   14.5803   19.2464    4.8445 C   0  0  0  0  0  0  0  0  0  0  0  0
   15.8154   20.1050    4.6463 C   0  0  0  0  0  0  0  0  0  0  0  0
   16.7558   19.9710    5.8411 C   0  0  0  0  0  0  0  0  0  0  0  0
   17.1470   18.5005    6.1128 C   0  0  0  0  0  0  0  0  0  0  0  0
   17.9702   17.9254    4.9206 C   0  0  0  0  0  0  0  0  0  0  0  0
   19.2900   17.2646    5.3254 C   0  0  0  0  0  0  0  0  0  0  0  0
   18.5475   17.0306    7.6874 C   0  0  0  0  0  0  0  0  0  0  0  0
   17.9854   18.4331    7.4102 C   0  0  0  0  0  0  0  0  0  0  0  0
   14.8944   17.8989    5.2776 N   0  0  0  0  0  0  0  0  0  0  0  0
   19.0805   16.4137    6.4848 N   0  0  0  0  0  0  0  0  0  0  0  0
   19.4634   15.0807    6.4266 C   0  0  0  0  0  0  0  0  0  0  0  0
   19.0225   12.9374    5.5537 C   0  0  0  0  0  0  0  0  0  0  0  0
   20.7259   13.1039    6.9406 C   0  0  0  0  0  0  0  0  0  0  0  0
   22.3092   13.7437    8.3854 C   0  0  0  0  0  0  0  0  0  0  0  0
   21.5722   14.8589    8.0456 C   0  0  0  0  0  0  0  0  0  0  0  0
   20.5468   14.4728    7.1230 C   0  0  0  0  0  0  0  0  0  0  0  0
   18.7283   14.2466    5.6282 N   0  0  0  0  0  0  0  0  0  0  0  0
   20.0055   12.2758    6.1737 N   0  0  0  0  0  0  0  0  0  0  0  0
   21.7821   12.6859    7.7016 N   0  0  0  0  0  0  0  0  0  0  0  0
   22.0945   11.7273    7.7431 H   0  0  0  0  0  0  0  0  0  0  0  0
   13.9996   16.8107    4.9014 C   0  0  0  0  0  0  0  0  0  0  0  0
   14.7655   15.9356    3.9544 C   0  0  0  0  0  0  0  0  0  0  0  0
   15.3854   16.3268    2.7800 C   0  0  0  0  0  0  0  0  0  0  0  0
   15.9250   14.1636    3.1013 C   0  0  0  0  0  0  0  0  0  0  0  0
   16.4791   12.8808    3.0084 C   0  0  0  0  0  0  0  0  0  0  0  0
   16.1474   11.9575    4.0037 C   0  0  0  0  0  0  0  0  0  0  0  0
   15.2969   12.3063    5.0487 C   0  0  0  0  0  0  0  0  0  0  0  0
   14.7670   13.5975    5.1360 C   0  0  0  0  0  0  0  0  0  0  0  0
   15.0817   14.5487    4.1437 C   0  0  0  0  0  0  0  0  0  0  0  0
   16.0853   15.2586    2.2866 N   0  0  0  0  0  0  0  0  0  0  0  0
   16.6675   15.2724    1.4614 H   0  0  0  0  0  0  0  0  0  0  0  0
  2 11  1  0  0  0
 23 11  1  0  0  0
 23 24  1  0  0  0
 25 32  1  0  0  0
 27 28  2  0  0  0
 29 30  2  0  0  0
 31 24  1  0  0  0
 31 26  2  0  0  0
  3 11  1  0  0  0
  3  4  1  0  0  0
  4  5  1  0  0  0
  5  6  1  0  0  0
  6  7  1  0  0  0
  6  2  1  0  0  0
  7  8  1  0  0  0
  8 12  1  0  0  0
  9 12  1  0  0  0
  9 10  1  0  0  0
 10  6  1  0  0  0
 14 19  2  0  0  0
 15 20  2  0  0  0
 15 21  1  0  0  0
 17 18  1  0  0  0
 18 13  2  0  0  0
 32 26  1  0  0  0
 12 13  1  0  0  0
 21 16  1  0  0  0
  2  1  2  0  0  0
 24 25  2  0  0  0
 26 27  1  0  0  0
 28 29  1  0  0  0
 30 31  1  0  0  0
 13 19  1  0  0  0
 14 20  1  0  0  0
 16 17  2  0  0  0
 18 15  1  0  0  0
 32 33  1  0  0  0
 21 22  1  0  0  0
M  END
> <minimizedAffinity>
-8.56670

$$$$
CHEMBL3669559


 33 38  0  0  0  0  0  0  0  0999 V2000
   16.5818   16.6205    3.3111 O   0  0  0  0  0  0  0  0  0  0  0  0
   16.0416   17.0254    4.3389 C   0  0  0  0  0  0  0  0  0  0  0  0
   15.7672   19.0601    5.7091 C   0  0  0  0  0  0  0  0  0  0  0  0
   14.5119   18.4947    6.3469 C   0  0  0  0  0  0  0  0  0  0  0  0
   13.8218   17.5213    5.3949 C   0  0  0  0  0  0  0  0  0  0  0  0
   14.7653   16.3853    4.9379 C   0  0  0  0  0  0  0  0  0  0  0  0
   15.1769   15.4966    6.1506 C   0  0  0  0  0  0  0  0  0  0  0  0
   14.9608   13.9968    5.9359 C   0  0  0  0  0  0  0  0  0  0  0  0
   14.8432   14.2796    3.4680 C   0  0  0  0  0  0  0  0  0  0  0  0
   14.0409   15.5238    3.8780 C   0  0  0  0  0  0  0  0  0  0  0  0
   16.6009   18.0396    5.1047 N   0  0  0  0  0  0  0  0  0  0  0  0
   15.4341   13.6139    4.6163 N   0  0  0  0  0  0  0  0  0  0  0  0
   16.3624   12.5885    4.4990 C   0  0  0  0  0  0  0  0  0  0  0  0
   16.7761   10.3687    3.8276 C   0  0  0  0  0  0  0  0  0  0  0  0
   18.4674   11.4561    4.7274 C   0  0  0  0  0  0  0  0  0  0  0  0
   19.8508   12.9198    5.7008 C   0  0  0  0  0  0  0  0  0  0  0  0
   18.6312   13.5408    5.5301 C   0  0  0  0  0  0  0  0  0  0  0  0
   17.7252   12.6198    4.9115 C   0  0  0  0  0  0  0  0  0  0  0  0
   15.9387   11.4138    3.9386 N   0  0  0  0  0  0  0  0  0  0  0  0
   18.0604   10.2975    4.1936 N   0  0  0  0  0  0  0  0  0  0  0  0
   19.7336   11.6533    5.2041 N   0  0  0  0  0  0  0  0  0  0  0  0
   20.4511   10.9439    5.1908 H   0  0  0  0  0  0  0  0  0  0  0  0
   18.0427   18.2496    5.0476 C   0  0  0  0  0  0  0  0  0  0  0  0
   18.5550   18.0800    6.4469 C   0  0  0  0  0  0  0  0  0  0  0  0
   18.4664   16.9425    7.2310 C   0  0  0  0  0  0  0  0  0  0  0  0
   19.7120   18.4224    8.3850 C   0  0  0  0  0  0  0  0  0  0  0  0
   20.5297   19.0538    9.3305 C   0  0  0  0  0  0  0  0  0  0  0  0
   20.9474   20.3593    9.0581 C   0  0  0  0  0  0  0  0  0  0  0  0
   20.5624   21.0041    7.8864 C   0  0  0  0  0  0  0  0  0  0  0  0
   19.7604   20.3521    6.9443 C   0  0  0  0  0  0  0  0  0  0  0  0
   19.3212   19.0357    7.1945 C   0  0  0  0  0  0  0  0  0  0  0  0
   19.1735   17.1581    8.3832 N   0  0  0  0  0  0  0  0  0  0  0  0
   19.3147   16.4795    9.1178 H   0  0  0  0  0  0  0  0  0  0  0  0
  2 11  1  0  0  0
 23 11  1  0  0  0
 23 24  1  0  0  0
 25 32  1  0  0  0
 27 28  2  0  0  0
 29 30  2  0  0  0
 31 24  1  0  0  0
 31 26  2  0  0  0
  3 11  1  0  0  0
  3  4  1  0  0  0
  4  5  1  0  0  0
  5  6  1  0  0  0
  6  7  1  0  0  0
  6  2  1  0  0  0
  7  8  1  0  0  0
  8 12  1  0  0  0
  9 12  1  0  0  0
  9 10  1  0  0  0
 10  6  1  0  0  0
 14 19  2  0  0  0
 15 20  2  0  0  0
 15 21  1  0  0  0
 17 18  1  0  0  0
 18 13  2  0  0  0
 32 26  1  0  0  0
 12 13  1  0  0  0
 21 16  1  0  0  0
  2  1  2  0  0  0
 24 25  2  0  0  0
 26 27  1  0  0  0
 28 29  1  0  0  0
 30 31  1  0  0  0
 13 19  1  0  0  0
 14 20  1  0  0  0
 16 17  2  0  0  0
 18 15  1  0  0  0
 32 33  1  0  0  0
 21 22  1  0  0  0
M  END
> <minimizedAffinity>
-8.50339

$$$$
CHEMBL3669559


 33 38  0  0  0  0  0  0  0  0999 V2000
   16.7812   14.0765    2.8314 O   0  0  0  0  0  0  0  0  0  0  0  0
   16.8153   14.2922    4.0415 C   0  0  0  0  0  0  0  0  0  0  0  0
   18.2841   15.2005    5.8052 C   0  0  0  0  0  0  0  0  0  0  0  0
   17.0903   15.4561    6.7062 C   0  0  0  0  0  0  0  0  0  0  0  0
   15.8346   15.6973    5.8725 C   0  0  0  0  0  0  0  0  0  0  0  0
   15.5484   14.5312    4.8991 C   0  0  0  0  0  0  0  0  0  0  0  0
   15.2295   13.2261    5.6896 C   0  0  0  0  0  0  0  0  0  0  0  0
   13.9352   12.5300    5.2624 C   0  0  0  0  0  0  0  0  0  0  0  0
   13.8912   13.7520    3.0969 C   0  0  0  0  0  0  0  0  0  0  0  0
   14.3475   14.9073    4.0008 C   0  0  0  0  0  0  0  0  0  0  0  0
   18.0036   14.2383    4.7577 N   0  0  0  0  0  0  0  0  0  0  0  0
   13.8529   12.4879    3.8121 N   0  0  0  0  0  0  0  0  0  0  0  0
   13.6659   11.2674    3.1778 C   0  0  0  0  0  0  0  0  0  0  0  0
   14.4487    9.0682    2.8605 C   0  0  0  0  0  0  0  0  0  0  0  0
   12.6718    9.6574    1.6995 C   0  0  0  0  0  0  0  0  0  0  0  0
   10.9437   10.6964    0.7311 C   0  0  0  0  0  0  0  0  0  0  0  0
   11.5315   11.5832    1.6088 C   0  0  0  0  0  0  0  0  0  0  0  0
   12.6460   10.9409    2.2389 C   0  0  0  0  0  0  0  0  0  0  0  0
   14.5506   10.2635    3.4661 N   0  0  0  0  0  0  0  0  0  0  0  0
   13.5395    8.6723    1.9632 N   0  0  0  0  0  0  0  0  0  0  0  0
   11.6487    9.5292    0.8016 N   0  0  0  0  0  0  0  0  0  0  0  0
   11.4734    8.6880    0.2725 H   0  0  0  0  0  0  0  0  0  0  0  0
   19.0911   13.4082    4.2531 C   0  0  0  0  0  0  0  0  0  0  0  0
   19.3711   12.3818    5.3101 C   0  0  0  0  0  0  0  0  0  0  0  0
   20.1356   12.5531    6.4514 C   0  0  0  0  0  0  0  0  0  0  0  0
   19.2225   10.4989    6.5925 C   0  0  0  0  0  0  0  0  0  0  0  0
   18.8075    9.2306    7.0176 C   0  0  0  0  0  0  0  0  0  0  0  0
   17.9622    8.5075    6.1717 C   0  0  0  0  0  0  0  0  0  0  0  0
   17.5494    9.0344    4.9515 C   0  0  0  0  0  0  0  0  0  0  0  0
   17.9586   10.3103    4.5508 C   0  0  0  0  0  0  0  0  0  0  0  0
   18.8145   11.0611    5.3827 C   0  0  0  0  0  0  0  0  0  0  0  0
   20.0277   11.4221    7.2152 N   0  0  0  0  0  0  0  0  0  0  0  0
   20.4476   11.2885    8.1240 H   0  0  0  0  0  0  0  0  0  0  0  0
  2 11  1  0  0  0
 23 11  1  0  0  0
 23 24  1  0  0  0
 25 32  1  0  0  0
 27 28  2  0  0  0
 29 30  2  0  0  0
 31 24  1  0  0  0
 31 26  2  0  0  0
  3 11  1  0  0  0
  3  4  1  0  0  0
  4  5  1  0  0  0
  5  6  1  0  0  0
  6  7  1  0  0  0
  6  2  1  0  0  0
  7  8  1  0  0  0
  8 12  1  0  0  0
  9 12  1  0  0  0
  9 10  1  0  0  0
 10  6  1  0  0  0
 14 19  2  0  0  0
 15 20  2  0  0  0
 15 21  1  0  0  0
 17 18  1  0  0  0
 18 13  2  0  0  0
 32 26  1  0  0  0
 12 13  1  0  0  0
 21 16  1  0  0  0
  2  1  2  0  0  0
 24 25  2  0  0  0
 26 27  1  0  0  0
 28 29  1  0  0  0
 30 31  1  0  0  0
 13 19  1  0  0  0
 14 20  1  0  0  0
 16 17  2  0  0  0
 18 15  1  0  0  0
 32 33  1  0  0  0
 21 22  1  0  0  0
M  END
> <minimizedAffinity>
-8.47880

$$$$
CHEMBL3393341


 25 28  0  0  0  0  0  0  0  0999 V2000
   16.8552   10.6371    4.3732 C   0  0  0  0  0  0  0  0  0  0  0  0
   18.5878    9.3171    5.1991 C   0  0  0  0  0  0  0  0  0  0  0  0
   18.9188   11.5048    5.1884 C   0  0  0  0  0  0  0  0  0  0  0  0
   18.8018   13.7194    4.8637 C   0  0  0  0  0  0  0  0  0  0  0  0
   17.6471   13.1693    4.3340 C   0  0  0  0  0  0  0  0  0  0  0  0
   17.6917   11.7558    4.5936 C   0  0  0  0  0  0  0  0  0  0  0  0
   17.3585    9.4080    4.6552 N   0  0  0  0  0  0  0  0  0  0  0  0
   19.4280   10.3124    5.5267 N   0  0  0  0  0  0  0  0  0  0  0  0
   19.5559   12.6984    5.3831 N   0  0  0  0  0  0  0  0  0  0  0  0
   20.4652   12.7837    5.8135 H   0  0  0  0  0  0  0  0  0  0  0  0
   13.0617    8.7717    1.8349 C   0  0  0  0  0  0  0  0  0  0  0  0
   13.7736    9.9760    2.4420 C   0  0  0  0  0  0  0  0  0  0  0  0
   12.7818   10.8728    3.1997 C   0  0  0  0  0  0  0  0  0  0  0  0
   13.4850   12.0585    3.8584 C   0  0  0  0  0  0  0  0  0  0  0  0
   14.6925   11.6253    4.6877 C   0  0  0  0  0  0  0  0  0  0  0  0
   14.9304    9.5492    3.3609 C   0  0  0  0  0  0  0  0  0  0  0  0
   15.5576   10.7582    3.8870 N   0  0  0  0  0  0  0  0  0  0  0  0
   16.6712   13.9529    3.5898 C   0  0  0  0  0  0  0  0  0  0  0  0
   16.5081   13.7852    2.2095 C   0  0  0  0  0  0  0  0  0  0  0  0
   15.5922   14.5717    1.5048 C   0  0  0  0  0  0  0  0  0  0  0  0
   14.8349   15.5346    2.1735 C   0  0  0  0  0  0  0  0  0  0  0  0
   14.9810   15.7037    3.5529 C   0  0  0  0  0  0  0  0  0  0  0  0
   15.8862   14.9034    4.2581 C   0  0  0  0  0  0  0  0  0  0  0  0
   14.2411   16.7250    4.2357 C   0  0  0  0  0  0  0  0  0  0  0  0
   13.6308   17.5356    4.7978 N   0  0  0  0  0  0  0  0  0  0  0  0
 12 11  1  0  0  0
 12 13  1  0  0  0
 13 14  1  0  0  0
 14 15  1  0  0  0
 15 17  1  0  0  0
 16 17  1  0  0  0
 16 12  1  0  0  0
  2  7  2  0  0  0
  3  8  2  0  0  0
  3  9  1  0  0  0
  5 18  1  0  0  0
  5  6  1  0  0  0
 19 20  2  0  0  0
 21 22  2  0  0  0
 22 24  1  0  0  0
 23 18  2  0  0  0
  6  1  2  0  0  0
 17  1  1  0  0  0
  9  4  1  0  0  0
  1  7  1  0  0  0
  2  8  1  0  0  0
  4  5  2  0  0  0
 18 19  1  0  0  0
 20 21  1  0  0  0
 22 23  1  0  0  0
  6  3  1  0  0  0
 24 25  3  0  0  0
  9 10  1  0  0  0
M  END
> <minimizedAffinity>
-8.62446

$$$$
CHEMBL3393341


 25 28  0  0  0  0  0  0  0  0999 V2000
   14.4875    9.8614    3.1123 C   0  0  0  0  0  0  0  0  0  0  0  0
   13.1128    8.3180    2.0377 C   0  0  0  0  0  0  0  0  0  0  0  0
   12.4475   10.4283    2.0199 C   0  0  0  0  0  0  0  0  0  0  0  0
   12.1725   12.6238    2.3770 C   0  0  0  0  0  0  0  0  0  0  0  0
   13.3138   12.2407    3.0604 C   0  0  0  0  0  0  0  0  0  0  0  0
   13.5260   10.8455    2.7850 C   0  0  0  0  0  0  0  0  0  0  0  0
   14.2255    8.5791    2.7512 N   0  0  0  0  0  0  0  0  0  0  0  0
   12.1819    9.1829    1.6026 N   0  0  0  0  0  0  0  0  0  0  0  0
   11.6659   11.5159    1.7471 N   0  0  0  0  0  0  0  0  0  0  0  0
   10.8230   11.4745    1.1928 H   0  0  0  0  0  0  0  0  0  0  0  0
   17.9069    8.7014    6.4702 C   0  0  0  0  0  0  0  0  0  0  0  0
   17.2284    9.7454    5.5895 C   0  0  0  0  0  0  0  0  0  0  0  0
   18.2712   10.6241    4.8806 C   0  0  0  0  0  0  0  0  0  0  0  0
   17.6113   11.6438    3.9538 C   0  0  0  0  0  0  0  0  0  0  0  0
   16.5980   10.9965    3.0117 C   0  0  0  0  0  0  0  0  0  0  0  0
   16.2798    9.0974    4.5672 C   0  0  0  0  0  0  0  0  0  0  0  0
   15.6702   10.1644    3.7787 N   0  0  0  0  0  0  0  0  0  0  0  0
   14.0431   13.1410    3.9423 C   0  0  0  0  0  0  0  0  0  0  0  0
   14.5140   12.7108    5.1885 C   0  0  0  0  0  0  0  0  0  0  0  0
   15.1803   13.5988    6.0378 C   0  0  0  0  0  0  0  0  0  0  0  0
   15.3778   14.9249    5.6499 C   0  0  0  0  0  0  0  0  0  0  0  0
   14.9220   15.3631    4.4038 C   0  0  0  0  0  0  0  0  0  0  0  0
   14.2705   14.4677    3.5490 C   0  0  0  0  0  0  0  0  0  0  0  0
   15.0790   16.7365    4.0218 C   0  0  0  0  0  0  0  0  0  0  0  0
   15.2030   17.8533    3.7338 N   0  0  0  0  0  0  0  0  0  0  0  0
 12 11  1  0  0  0
 12 13  1  0  0  0
 13 14  1  0  0  0
 14 15  1  0  0  0
 15 17  1  0  0  0
 16 17  1  0  0  0
 16 12  1  0  0  0
  2  7  2  0  0  0
  3  8  2  0  0  0
  3  9  1  0  0  0
  5 18  1  0  0  0
  5  6  1  0  0  0
 19 20  2  0  0  0
 21 22  2  0  0  0
 22 24  1  0  0  0
 23 18  2  0  0  0
  6  1  2  0  0  0
 17  1  1  0  0  0
  9  4  1  0  0  0
  1  7  1  0  0  0
  2  8  1  0  0  0
  4  5  2  0  0  0
 18 19  1  0  0  0
 20 21  1  0  0  0
 22 23  1  0  0  0
  6  3  1  0  0  0
 24 25  3  0  0  0
  9 10  1  0  0  0
M  END
> <minimizedAffinity>
-8.37390

$$$$
CHEMBL3393341


 25 28  0  0  0  0  0  0  0  0999 V2000
   17.8814   13.3145    4.4153 C   0  0  0  0  0  0  0  0  0  0  0  0
   19.8818   13.0520    5.5799 C   0  0  0  0  0  0  0  0  0  0  0  0
   18.6447   11.2388    5.3010 C   0  0  0  0  0  0  0  0  0  0  0  0
   17.0126    9.7678    4.8583 C   0  0  0  0  0  0  0  0  0  0  0  0
   16.5733   11.0060    4.4221 C   0  0  0  0  0  0  0  0  0  0  0  0
   17.6415   11.9409    4.6506 C   0  0  0  0  0  0  0  0  0  0  0  0
   19.0123   13.8556    4.9369 N   0  0  0  0  0  0  0  0  0  0  0  0
   19.7948   11.7275    5.7848 N   0  0  0  0  0  0  0  0  0  0  0  0
   18.2709    9.9263    5.3803 N   0  0  0  0  0  0  0  0  0  0  0  0
   18.8402    9.2068    5.8016 H   0  0  0  0  0  0  0  0  0  0  0  0
   15.1167   17.3785    4.0230 C   0  0  0  0  0  0  0  0  0  0  0  0
   15.4545   15.9666    3.5557 C   0  0  0  0  0  0  0  0  0  0  0  0
   15.5094   15.8968    2.0214 C   0  0  0  0  0  0  0  0  0  0  0  0
   15.8966   14.5011    1.5351 C   0  0  0  0  0  0  0  0  0  0  0  0
   17.1526   13.9762    2.2281 C   0  0  0  0  0  0  0  0  0  0  0  0
   16.7721   15.4643    4.1693 C   0  0  0  0  0  0  0  0  0  0  0  0
   17.0103   14.1100    3.6784 N   0  0  0  0  0  0  0  0  0  0  0  0
   15.2246   11.2314    3.9217 C   0  0  0  0  0  0  0  0  0  0  0  0
   14.5471   12.4292    4.1789 C   0  0  0  0  0  0  0  0  0  0  0  0
   13.2391   12.6142    3.7219 C   0  0  0  0  0  0  0  0  0  0  0  0
   12.5966   11.6020    3.0075 C   0  0  0  0  0  0  0  0  0  0  0  0
   13.2664   10.4063    2.7350 C   0  0  0  0  0  0  0  0  0  0  0  0
   14.5814   10.2307    3.1792 C   0  0  0  0  0  0  0  0  0  0  0  0
   12.5933    9.3449    2.0443 C   0  0  0  0  0  0  0  0  0  0  0  0
   12.0345    8.5009    1.4777 N   0  0  0  0  0  0  0  0  0  0  0  0
 12 11  1  0  0  0
 12 13  1  0  0  0
 13 14  1  0  0  0
 14 15  1  0  0  0
 15 17  1  0  0  0
 16 17  1  0  0  0
 16 12  1  0  0  0
  2  7  2  0  0  0
  3  8  2  0  0  0
  3  9  1  0  0  0
  5 18  1  0  0  0
  5  6  1  0  0  0
 19 20  2  0  0  0
 21 22  2  0  0  0
 22 24  1  0  0  0
 23 18  2  0  0  0
  6  1  2  0  0  0
 17  1  1  0  0  0
  9  4  1  0  0  0
  1  7  1  0  0  0
  2  8  1  0  0  0
  4  5  2  0  0  0
 18 19  1  0  0  0
 20 21  1  0  0  0
 22 23  1  0  0  0
  6  3  1  0  0  0
 24 25  3  0  0  0
  9 10  1  0  0  0
M  END
> <minimizedAffinity>
-8.25741

$$$$
CHEMBL3393341


 25 28  0  0  0  0  0  0  0  0999 V2000
   13.4965   12.1459    2.8885 C   0  0  0  0  0  0  0  0  0  0  0  0
   11.6262   11.8459    1.5325 C   0  0  0  0  0  0  0  0  0  0  0  0
   12.7012   10.0191    2.1674 C   0  0  0  0  0  0  0  0  0  0  0  0
   14.1721    8.5311    2.9710 C   0  0  0  0  0  0  0  0  0  0  0  0
   14.6411    9.7891    3.3083 C   0  0  0  0  0  0  0  0  0  0  0  0
   13.6697   10.7431    2.8460 C   0  0  0  0  0  0  0  0  0  0  0  0
   12.4697   12.6765    2.1759 N   0  0  0  0  0  0  0  0  0  0  0  0
   11.6476   10.5035    1.4960 N   0  0  0  0  0  0  0  0  0  0  0  0
   12.9936    8.6892    2.2877 N   0  0  0  0  0  0  0  0  0  0  0  0
   12.4286    7.9537    1.8887 H   0  0  0  0  0  0  0  0  0  0  0  0
   15.9998   16.3722    3.3191 C   0  0  0  0  0  0  0  0  0  0  0  0
   15.7650   14.9312    3.7597 C   0  0  0  0  0  0  0  0  0  0  0  0
   15.7490   14.8238    5.2928 C   0  0  0  0  0  0  0  0  0  0  0  0
   15.4642   13.3953    5.7539 C   0  0  0  0  0  0  0  0  0  0  0  0
   14.2297   12.8050    5.0750 C   0  0  0  0  0  0  0  0  0  0  0  0
   14.4693   14.3576    3.1621 C   0  0  0  0  0  0  0  0  0  0  0  0
   14.3305   12.9801    3.6256 N   0  0  0  0  0  0  0  0  0  0  0  0
   15.9372   10.0041    3.9361 C   0  0  0  0  0  0  0  0  0  0  0  0
   16.8110   10.9952    3.4734 C   0  0  0  0  0  0  0  0  0  0  0  0
   18.0664   11.1634    4.0646 C   0  0  0  0  0  0  0  0  0  0  0  0
   18.4600   10.3398    5.1204 C   0  0  0  0  0  0  0  0  0  0  0  0
   17.5921    9.3543    5.5981 C   0  0  0  0  0  0  0  0  0  0  0  0
   16.3297    9.1996    5.0155 C   0  0  0  0  0  0  0  0  0  0  0  0
   18.0113    8.4738    6.6497 C   0  0  0  0  0  0  0  0  0  0  0  0
   18.3356    7.7469    7.4935 N   0  0  0  0  0  0  0  0  0  0  0  0
 12 11  1  0  0  0
 12 13  1  0  0  0
 13 14  1  0  0  0
 14 15  1  0  0  0
 15 17  1  0  0  0
 16 17  1  0  0  0
 16 12  1  0  0  0
  2  7  2  0  0  0
  3  8  2  0  0  0
  3  9  1  0  0  0
  5 18  1  0  0  0
  5  6  1  0  0  0
 19 20  2  0  0  0
 21 22  2  0  0  0
 22 24  1  0  0  0
 23 18  2  0  0  0
  6  1  2  0  0  0
 17  1  1  0  0  0
  9  4  1  0  0  0
  1  7  1  0  0  0
  2  8  1  0  0  0
  4  5  2  0  0  0
 18 19  1  0  0  0
 20 21  1  0  0  0
 22 23  1  0  0  0
  6  3  1  0  0  0
 24 25  3  0  0  0
  9 10  1  0  0  0
M  END
> <minimizedAffinity>
-8.23118

$$$$
CHEMBL3393341


 25 28  0  0  0  0  0  0  0  0999 V2000
   13.1273   11.1983    2.3654 C   0  0  0  0  0  0  0  0  0  0  0  0
   12.2730    9.2305    1.4571 C   0  0  0  0  0  0  0  0  0  0  0  0
   13.9167    9.0208    2.9234 C   0  0  0  0  0  0  0  0  0  0  0  0
   15.6257    9.3521    4.3352 C   0  0  0  0  0  0  0  0  0  0  0  0
   15.1854   10.6004    3.9299 C   0  0  0  0  0  0  0  0  0  0  0  0
   14.0513   10.3929    3.0706 C   0  0  0  0  0  0  0  0  0  0  0  0
   12.2631   10.5762    1.5229 N   0  0  0  0  0  0  0  0  0  0  0  0
   13.0446    8.3701    2.1414 N   0  0  0  0  0  0  0  0  0  0  0  0
   14.8416    8.4085    3.7222 N   0  0  0  0  0  0  0  0  0  0  0  0
   14.9375    7.4065    3.8008 H   0  0  0  0  0  0  0  0  0  0  0  0
   15.2767   15.6112    1.8977 C   0  0  0  0  0  0  0  0  0  0  0  0
   14.1982   14.7325    2.5226 C   0  0  0  0  0  0  0  0  0  0  0  0
   12.8303   15.4319    2.4800 C   0  0  0  0  0  0  0  0  0  0  0  0
   11.7270   14.5457    3.0559 C   0  0  0  0  0  0  0  0  0  0  0  0
   11.7310   13.1469    2.4422 C   0  0  0  0  0  0  0  0  0  0  0  0
   14.1241   13.3542    1.8448 C   0  0  0  0  0  0  0  0  0  0  0  0
   13.0788   12.5809    2.5089 N   0  0  0  0  0  0  0  0  0  0  0  0
   15.8707   11.8329    4.2921 C   0  0  0  0  0  0  0  0  0  0  0  0
   17.2146   12.0398    3.9585 C   0  0  0  0  0  0  0  0  0  0  0  0
   17.8670   13.2136    4.3462 C   0  0  0  0  0  0  0  0  0  0  0  0
   17.1826   14.1884    5.0736 C   0  0  0  0  0  0  0  0  0  0  0  0
   15.8379   13.9982    5.4030 C   0  0  0  0  0  0  0  0  0  0  0  0
   15.1830   12.8299    4.9990 C   0  0  0  0  0  0  0  0  0  0  0  0
   15.1448   14.9745    6.1923 C   0  0  0  0  0  0  0  0  0  0  0  0
   14.5794   15.7753    6.8125 N   0  0  0  0  0  0  0  0  0  0  0  0
 12 11  1  0  0  0
 12 13  1  0  0  0
 13 14  1  0  0  0
 14 15  1  0  0  0
 15 17  1  0  0  0
 16 17  1  0  0  0
 16 12  1  0  0  0
  2  7  2  0  0  0
  3  8  2  0  0  0
  3  9  1  0  0  0
  5 18  1  0  0  0
  5  6  1  0  0  0
 19 20  2  0  0  0
 21 22  2  0  0  0
 22 24  1  0  0  0
 23 18  2  0  0  0
  6  1  2  0  0  0
 17  1  1  0  0  0
  9  4  1  0  0  0
  1  7  1  0  0  0
  2  8  1  0  0  0
  4  5  2  0  0  0
 18 19  1  0  0  0
 20 21  1  0  0  0
 22 23  1  0  0  0
  6  3  1  0  0  0
 24 25  3  0  0  0
  9 10  1  0  0  0
M  END
> <minimizedAffinity>
-8.21814

$$$$
CHEMBL3393341


 25 28  0  0  0  0  0  0  0  0999 V2000
   14.8082   16.7800    4.6556 C   0  0  0  0  0  0  0  0  0  0  0  0
   13.9722   18.7305    5.6165 C   0  0  0  0  0  0  0  0  0  0  0  0
   15.7990   17.8746    6.5254 C   0  0  0  0  0  0  0  0  0  0  0  0
   17.5222   16.5752    7.1299 C   0  0  0  0  0  0  0  0  0  0  0  0
   16.8748   15.9331    6.0883 C   0  0  0  0  0  0  0  0  0  0  0  0
   15.8045   16.7920    5.6591 C   0  0  0  0  0  0  0  0  0  0  0  0
   13.8684   17.7595    4.6883 N   0  0  0  0  0  0  0  0  0  0  0  0
   14.9192   18.8848    6.5563 N   0  0  0  0  0  0  0  0  0  0  0  0
   16.8621   17.7519    7.3758 N   0  0  0  0  0  0  0  0  0  0  0  0
   17.0832   18.4242    8.0959 H   0  0  0  0  0  0  0  0  0  0  0  0
   12.3575   13.2468    2.2422 C   0  0  0  0  0  0  0  0  0  0  0  0
   13.6782   13.9104    2.6182 C   0  0  0  0  0  0  0  0  0  0  0  0
   14.5727   14.0879    1.3810 C   0  0  0  0  0  0  0  0  0  0  0  0
   15.8801   14.7976    1.7292 C   0  0  0  0  0  0  0  0  0  0  0  0
   15.6461   16.0841    2.5187 C   0  0  0  0  0  0  0  0  0  0  0  0
   13.4567   15.2578    3.3255 C   0  0  0  0  0  0  0  0  0  0  0  0
   14.7657   15.8139    3.6559 N   0  0  0  0  0  0  0  0  0  0  0  0
   17.2345   14.5941    5.6437 C   0  0  0  0  0  0  0  0  0  0  0  0
   18.5740   14.2153    5.4951 C   0  0  0  0  0  0  0  0  0  0  0  0
   18.9005   12.9374    5.0322 C   0  0  0  0  0  0  0  0  0  0  0  0
   17.8908   12.0293    4.7104 C   0  0  0  0  0  0  0  0  0  0  0  0
   16.5502   12.3920    4.8651 C   0  0  0  0  0  0  0  0  0  0  0  0
   16.2268   13.6658    5.3446 C   0  0  0  0  0  0  0  0  0  0  0  0
   15.5093   11.4799    4.4892 C   0  0  0  0  0  0  0  0  0  0  0  0
   14.6623   10.7552    4.1684 N   0  0  0  0  0  0  0  0  0  0  0  0
 12 11  1  0  0  0
 12 13  1  0  0  0
 13 14  1  0  0  0
 14 15  1  0  0  0
 15 17  1  0  0  0
 16 17  1  0  0  0
 16 12  1  0  0  0
  2  7  2  0  0  0
  3  8  2  0  0  0
  3  9  1  0  0  0
  5 18  1  0  0  0
  5  6  1  0  0  0
 19 20  2  0  0  0
 21 22  2  0  0  0
 22 24  1  0  0  0
 23 18  2  0  0  0
  6  1  2  0  0  0
 17  1  1  0  0  0
  9  4  1  0  0  0
  1  7  1  0  0  0
  2  8  1  0  0  0
  4  5  2  0  0  0
 18 19  1  0  0  0
 20 21  1  0  0  0
 22 23  1  0  0  0
  6  3  1  0  0  0
 24 25  3  0  0  0
  9 10  1  0  0  0
M  END
> <minimizedAffinity>
-8.19524

$$$$
CHEMBL3393341


 25 28  0  0  0  0  0  0  0  0999 V2000
   13.2217   11.2082    2.3325 C   0  0  0  0  0  0  0  0  0  0  0  0
   12.6299    9.2718    1.1805 C   0  0  0  0  0  0  0  0  0  0  0  0
   14.0482    9.0375    2.8626 C   0  0  0  0  0  0  0  0  0  0  0  0
   15.5069    9.3495    4.5356 C   0  0  0  0  0  0  0  0  0  0  0  0
   15.0578   10.6007    4.1492 C   0  0  0  0  0  0  0  0  0  0  0  0
   14.0776   10.4004    3.1164 C   0  0  0  0  0  0  0  0  0  0  0  0
   12.5302   10.6070    1.3304 N   0  0  0  0  0  0  0  0  0  0  0  0
   13.3417    8.4031    1.9172 N   0  0  0  0  0  0  0  0  0  0  0  0
   14.8797    8.4153    3.7514 N   0  0  0  0  0  0  0  0  0  0  0  0
   15.0225    7.4162    3.7791 H   0  0  0  0  0  0  0  0  0  0  0  0
   15.1240   15.7570    2.3836 C   0  0  0  0  0  0  0  0  0  0  0  0
   14.0425   14.7779    2.8281 C   0  0  0  0  0  0  0  0  0  0  0  0
   12.6455   15.4004    2.6766 C   0  0  0  0  0  0  0  0  0  0  0  0
   11.5452   14.4159    3.0694 C   0  0  0  0  0  0  0  0  0  0  0  0
   11.7042   13.0651    2.3740 C   0  0  0  0  0  0  0  0  0  0  0  0
   14.1298   13.4476    2.0618 C   0  0  0  0  0  0  0  0  0  0  0  0
   13.0702   12.5727    2.5555 N   0  0  0  0  0  0  0  0  0  0  0  0
   15.6074   11.8360    4.6896 C   0  0  0  0  0  0  0  0  0  0  0  0
   14.8006   12.7452    5.3841 C   0  0  0  0  0  0  0  0  0  0  0  0
   15.3370   13.9434    5.8643 C   0  0  0  0  0  0  0  0  0  0  0  0
   16.6830   14.2441    5.6508 C   0  0  0  0  0  0  0  0  0  0  0  0
   17.5009   13.3394    4.9685 C   0  0  0  0  0  0  0  0  0  0  0  0
   16.9651   12.1335    4.5039 C   0  0  0  0  0  0  0  0  0  0  0  0
   18.8720   13.6661    4.7040 C   0  0  0  0  0  0  0  0  0  0  0  0
   19.9861   13.9250    4.5106 N   0  0  0  0  0  0  0  0  0  0  0  0
 12 11  1  0  0  0
 12 13  1  0  0  0
 13 14  1  0  0  0
 14 15  1  0  0  0
 15 17  1  0  0  0
 16 17  1  0  0  0
 16 12  1  0  0  0
  2  7  2  0  0  0
  3  8  2  0  0  0
  3  9  1  0  0  0
  5 18  1  0  0  0
  5  6  1  0  0  0
 19 20  2  0  0  0
 21 22  2  0  0  0
 22 24  1  0  0  0
 23 18  2  0  0  0
  6  1  2  0  0  0
 17  1  1  0  0  0
  9  4  1  0  0  0
  1  7  1  0  0  0
  2  8  1  0  0  0
  4  5  2  0  0  0
 18 19  1  0  0  0
 20 21  1  0  0  0
 22 23  1  0  0  0
  6  3  1  0  0  0
 24 25  3  0  0  0
  9 10  1  0  0  0
M  END
> <minimizedAffinity>
-8.17082

$$$$
CHEMBL3393341


 25 28  0  0  0  0  0  0  0  0999 V2000
   16.9773   12.8451    4.0017 C   0  0  0  0  0  0  0  0  0  0  0  0
   18.7665   12.0793    5.2819 C   0  0  0  0  0  0  0  0  0  0  0  0
   17.2004   10.6018    4.7721 C   0  0  0  0  0  0  0  0  0  0  0  0
   15.3371    9.5541    4.0983 C   0  0  0  0  0  0  0  0  0  0  0  0
   15.2115   10.8830    3.7315 C   0  0  0  0  0  0  0  0  0  0  0  0
   16.4304   11.5455    4.1094 C   0  0  0  0  0  0  0  0  0  0  0  0
   18.1476   13.0921    4.6442 N   0  0  0  0  0  0  0  0  0  0  0  0
   18.3816   10.7959    5.3742 N   0  0  0  0  0  0  0  0  0  0  0  0
   16.5498    9.4007    4.7200 N   0  0  0  0  0  0  0  0  0  0  0  0
   16.9137    8.5492    5.1224 H   0  0  0  0  0  0  0  0  0  0  0  0
   15.1669   17.4243    3.7432 C   0  0  0  0  0  0  0  0  0  0  0  0
   15.2459   16.0072    3.1854 C   0  0  0  0  0  0  0  0  0  0  0  0
   15.4282   16.0294    1.6595 C   0  0  0  0  0  0  0  0  0  0  0  0
   15.5605   14.6187    1.0879 C   0  0  0  0  0  0  0  0  0  0  0  0
   16.6095   13.7918    1.8289 C   0  0  0  0  0  0  0  0  0  0  0  0
   16.3670   15.1943    3.8540 C   0  0  0  0  0  0  0  0  0  0  0  0
   16.3633   13.8562    3.2699 N   0  0  0  0  0  0  0  0  0  0  0  0
   13.9907   11.4289    3.1554 C   0  0  0  0  0  0  0  0  0  0  0  0
   13.1400   10.6362    2.3757 C   0  0  0  0  0  0  0  0  0  0  0  0
   11.9911   11.1863    1.8001 C   0  0  0  0  0  0  0  0  0  0  0  0
   11.6853   12.5339    1.9961 C   0  0  0  0  0  0  0  0  0  0  0  0
   12.5209   13.3324    2.7815 C   0  0  0  0  0  0  0  0  0  0  0  0
   13.6610   12.7749    3.3701 C   0  0  0  0  0  0  0  0  0  0  0  0
   12.2373   14.7286    2.9451 C   0  0  0  0  0  0  0  0  0  0  0  0
   11.9864   15.8537    3.0753 N   0  0  0  0  0  0  0  0  0  0  0  0
 12 11  1  0  0  0
 12 13  1  0  0  0
 13 14  1  0  0  0
 14 15  1  0  0  0
 15 17  1  0  0  0
 16 17  1  0  0  0
 16 12  1  0  0  0
  2  7  2  0  0  0
  3  8  2  0  0  0
  3  9  1  0  0  0
  5 18  1  0  0  0
  5  6  1  0  0  0
 19 20  2  0  0  0
 21 22  2  0  0  0
 22 24  1  0  0  0
 23 18  2  0  0  0
  6  1  2  0  0  0
 17  1  1  0  0  0
  9  4  1  0  0  0
  1  7  1  0  0  0
  2  8  1  0  0  0
  4  5  2  0  0  0
 18 19  1  0  0  0
 20 21  1  0  0  0
 22 23  1  0  0  0
  6  3  1  0  0  0
 24 25  3  0  0  0
  9 10  1  0  0  0
M  END
> <minimizedAffinity>
-8.13022

$$$$
CHEMBL3393341


 25 28  0  0  0  0  0  0  0  0999 V2000
   14.5656   16.9320    4.6582 C   0  0  0  0  0  0  0  0  0  0  0  0
   13.3258   18.6915    5.5490 C   0  0  0  0  0  0  0  0  0  0  0  0
   15.3604   18.3914    6.3654 C   0  0  0  0  0  0  0  0  0  0  0  0
   17.3880   17.6118    6.9170 C   0  0  0  0  0  0  0  0  0  0  0  0
   16.8611   16.7441    5.9759 C   0  0  0  0  0  0  0  0  0  0  0  0
   15.5855   17.2738    5.5762 C   0  0  0  0  0  0  0  0  0  0  0  0
   13.4136   17.6495    4.6995 N   0  0  0  0  0  0  0  0  0  0  0  0
   14.2585   19.1532    6.3981 N   0  0  0  0  0  0  0  0  0  0  0  0
   16.4694   18.6066    7.1349 N   0  0  0  0  0  0  0  0  0  0  0  0
   16.5575   19.3713    7.7882 H   0  0  0  0  0  0  0  0  0  0  0  0
   12.7967   12.8696    2.4946 C   0  0  0  0  0  0  0  0  0  0  0  0
   13.9782   13.7735    2.8302 C   0  0  0  0  0  0  0  0  0  0  0  0
   14.8542   14.0117    1.5900 C   0  0  0  0  0  0  0  0  0  0  0  0
   16.0155   14.9566    1.8944 C   0  0  0  0  0  0  0  0  0  0  0  0
   15.5515   16.2377    2.5849 C   0  0  0  0  0  0  0  0  0  0  0  0
   13.5180   15.1107    3.4343 C   0  0  0  0  0  0  0  0  0  0  0  0
   14.7071   15.9037    3.7324 N   0  0  0  0  0  0  0  0  0  0  0  0
   17.5183   15.5018    5.5952 C   0  0  0  0  0  0  0  0  0  0  0  0
   16.8096   14.2959    5.5352 C   0  0  0  0  0  0  0  0  0  0  0  0
   17.4644   13.1064    5.2034 C   0  0  0  0  0  0  0  0  0  0  0  0
   18.8335   13.1120    4.9326 C   0  0  0  0  0  0  0  0  0  0  0  0
   19.5495   14.3112    4.9785 C   0  0  0  0  0  0  0  0  0  0  0  0
   18.8880   15.5027    5.2944 C   0  0  0  0  0  0  0  0  0  0  0  0
   20.9652   14.3139    4.7494 C   0  0  0  0  0  0  0  0  0  0  0  0
   22.1075   14.3013    4.5482 N   0  0  0  0  0  0  0  0  0  0  0  0
 12 11  1  0  0  0
 12 13  1  0  0  0
 13 14  1  0  0  0
 14 15  1  0  0  0
 15 17  1  0  0  0
 16 17  1  0  0  0
 16 12  1  0  0  0
  2  7  2  0  0  0
  3  8  2  0  0  0
  3  9  1  0  0  0
  5 18  1  0  0  0
  5  6  1  0  0  0
 19 20  2  0  0  0
 21 22  2  0  0  0
 22 24  1  0  0  0
 23 18  2  0  0  0
  6  1  2  0  0  0
 17  1  1  0  0  0
  9  4  1  0  0  0
  1  7  1  0  0  0
  2  8  1  0  0  0
  4  5  2  0  0  0
 18 19  1  0  0  0
 20 21  1  0  0  0
 22 23  1  0  0  0
  6  3  1  0  0  0
 24 25  3  0  0  0
  9 10  1  0  0  0
M  END
> <minimizedAffinity>
-8.00199

$$$$
CHEMBL2152300


 24 27  0  0  0  0  0  0  0  0999 V2000
   13.1841   12.4170    2.8526 N   0  0  0  0  0  0  0  0  0  0  0  0
   11.4934   11.9081    1.4693 N   0  0  0  0  0  0  0  0  0  0  0  0
   12.8535    8.4238    1.8141 N   0  0  0  0  0  0  0  0  0  0  0  0
   14.7991    8.0326    3.2175 N   0  0  0  0  0  0  0  0  0  0  0  0
   12.1126   12.8747    2.1150 C   0  0  0  0  0  0  0  0  0  0  0  0
   12.1818   10.7672    1.7896 C   0  0  0  0  0  0  0  0  0  0  0  0
   12.0176    9.4261    1.3960 C   0  0  0  0  0  0  0  0  0  0  0  0
   13.8288    8.8122    2.6533 C   0  0  0  0  0  0  0  0  0  0  0  0
   15.5992    8.8112    4.0313 C   0  0  0  0  0  0  0  0  0  0  0  0
   15.1291   10.1140    4.0012 C   0  0  0  0  0  0  0  0  0  0  0  0
   14.0383   10.0952    3.1032 C   0  0  0  0  0  0  0  0  0  0  0  0
   13.2146   11.0822    2.6546 C   0  0  0  0  0  0  0  0  0  0  0  0
   14.8922    7.0404    3.0532 H   0  0  0  0  0  0  0  0  0  0  0  0
   16.4728   13.9417    3.9085 N   0  0  0  0  0  0  0  0  0  0  0  0
   17.6885   13.4966    4.4358 C   0  0  0  0  0  0  0  0  0  0  0  0
   16.1154   15.3536    4.0663 C   0  0  0  0  0  0  0  0  0  0  0  0
   14.6898   15.5081    4.5901 C   0  0  0  0  0  0  0  0  0  0  0  0
   13.6933   14.7354    3.7256 C   0  0  0  0  0  0  0  0  0  0  0  0
   14.0969   13.2485    3.6265 C   0  0  0  0  0  0  0  0  0  0  0  0
   15.5415   13.1472    3.0924 C   0  0  0  0  0  0  0  0  0  0  0  0
   18.4271   14.2583    5.0603 O   0  0  0  0  0  0  0  0  0  0  0  0
   18.0516   12.0409    4.2189 C   0  0  0  0  0  0  0  0  0  0  0  0
   19.6972   11.1721    6.0706 N   0  0  0  0  0  0  0  0  0  0  0  0
   18.9459   11.5206    5.2574 C   0  0  0  0  0  0  0  0  0  0  0  0
  1  5  1  0  0  0
  4  9  1  0  0  0
 22 24  1  0  0  0
 22 15  1  0  0  0
 15 14  1  0  0  0
 16 14  1  0  0  0
 16 17  1  0  0  0
 17 18  1  0  0  0
 18 19  1  0  0  0
 19  1  1  0  0  0
 19 20  1  0  0  0
  6  2  1  0  0  0
  7  3  2  0  0  0
  8  4  1  0  0  0
 10 11  1  0  0  0
 11  8  2  0  0  0
 12  1  1  0  0  0
 12  6  2  0  0  0
 20 14  1  0  0  0
 15 21  2  0  0  0
  5  2  2  0  0  0
  6  7  1  0  0  0
  8  3  1  0  0  0
  9 10  2  0  0  0
 11 12  1  0  0  0
 24 23  3  0  0  0
  4 13  1  0  0  0
M  END
> <minimizedAffinity>
-8.70845

$$$$
CHEMBL2152300


 24 27  0  0  0  0  0  0  0  0999 V2000
   15.6341   11.6815    3.9511 N   0  0  0  0  0  0  0  0  0  0  0  0
   14.8615    9.5984    3.6431 N   0  0  0  0  0  0  0  0  0  0  0  0
   11.8400   11.3962    2.3214 N   0  0  0  0  0  0  0  0  0  0  0  0
   11.8173   13.8264    2.2792 N   0  0  0  0  0  0  0  0  0  0  0  0
   15.8670   10.3284    4.0800 C   0  0  0  0  0  0  0  0  0  0  0  0
   13.9264   10.5020    3.2103 C   0  0  0  0  0  0  0  0  0  0  0  0
   12.6405   10.3376    2.6626 C   0  0  0  0  0  0  0  0  0  0  0  0
   12.3858   12.6077    2.5227 C   0  0  0  0  0  0  0  0  0  0  0  0
   12.7130   14.8256    2.6075 C   0  0  0  0  0  0  0  0  0  0  0  0
   13.8849   14.2410    3.0592 C   0  0  0  0  0  0  0  0  0  0  0  0
   13.6422   12.8492    3.0282 C   0  0  0  0  0  0  0  0  0  0  0  0
   14.4120   11.7853    3.3877 C   0  0  0  0  0  0  0  0  0  0  0  0
   10.8853   13.9507    1.9102 H   0  0  0  0  0  0  0  0  0  0  0  0
   16.8171   14.6198    6.0059 N   0  0  0  0  0  0  0  0  0  0  0  0
   16.4233   15.9426    6.2275 C   0  0  0  0  0  0  0  0  0  0  0  0
   18.1983   14.2391    6.3119 C   0  0  0  0  0  0  0  0  0  0  0  0
   18.8283   13.4669    5.1553 C   0  0  0  0  0  0  0  0  0  0  0  0
   17.9608   12.2774    4.7434 C   0  0  0  0  0  0  0  0  0  0  0  0
   16.5302   12.7415    4.3952 C   0  0  0  0  0  0  0  0  0  0  0  0
   15.9391   13.5135    5.5939 C   0  0  0  0  0  0  0  0  0  0  0  0
   17.2261   16.7860    6.6276 O   0  0  0  0  0  0  0  0  0  0  0  0
   14.9770   16.2967    5.9435 C   0  0  0  0  0  0  0  0  0  0  0  0
   13.8268   17.5619    7.9354 N   0  0  0  0  0  0  0  0  0  0  0  0
   14.3262   16.9651    7.0743 C   0  0  0  0  0  0  0  0  0  0  0  0
  1  5  1  0  0  0
  4  9  1  0  0  0
 22 24  1  0  0  0
 22 15  1  0  0  0
 15 14  1  0  0  0
 16 14  1  0  0  0
 16 17  1  0  0  0
 17 18  1  0  0  0
 18 19  1  0  0  0
 19  1  1  0  0  0
 19 20  1  0  0  0
  6  2  1  0  0  0
  7  3  2  0  0  0
  8  4  1  0  0  0
 10 11  1  0  0  0
 11  8  2  0  0  0
 12  1  1  0  0  0
 12  6  2  0  0  0
 20 14  1  0  0  0
 15 21  2  0  0  0
  5  2  2  0  0  0
  6  7  1  0  0  0
  8  3  1  0  0  0
  9 10  2  0  0  0
 11 12  1  0  0  0
 24 23  3  0  0  0
  4 13  1  0  0  0
M  END
> <minimizedAffinity>
-8.27996

$$$$
CHEMBL2152300


 24 27  0  0  0  0  0  0  0  0999 V2000
   13.3386   13.5267    2.7612 N   0  0  0  0  0  0  0  0  0  0  0  0
   12.3713   15.5328    3.0274 N   0  0  0  0  0  0  0  0  0  0  0  0
   15.8067   16.5379    4.1664 N   0  0  0  0  0  0  0  0  0  0  0  0
   17.5884   14.8848    4.1959 N   0  0  0  0  0  0  0  0  0  0  0  0
   12.1861   14.2786    2.6707 C   0  0  0  0  0  0  0  0  0  0  0  0
   13.6961   15.6146    3.3690 C   0  0  0  0  0  0  0  0  0  0  0  0
   14.4816   16.6798    3.8473 C   0  0  0  0  0  0  0  0  0  0  0  0
   16.3106   15.3089    3.9616 C   0  0  0  0  0  0  0  0  0  0  0  0
   17.7042   13.5549    3.8402 C   0  0  0  0  0  0  0  0  0  0  0  0
   16.4825   13.1165    3.3561 C   0  0  0  0  0  0  0  0  0  0  0  0
   15.6157   14.2263    3.4741 C   0  0  0  0  0  0  0  0  0  0  0  0
   14.2931   14.3795    3.1894 C   0  0  0  0  0  0  0  0  0  0  0  0
   18.3195   15.4745    4.5675 H   0  0  0  0  0  0  0  0  0  0  0  0
   14.0130    9.8798    3.4684 N   0  0  0  0  0  0  0  0  0  0  0  0
   15.1095    9.0883    3.8227 C   0  0  0  0  0  0  0  0  0  0  0  0
   12.8498    9.2324    2.8570 C   0  0  0  0  0  0  0  0  0  0  0  0
   12.4000    9.9751    1.6012 C   0  0  0  0  0  0  0  0  0  0  0  0
   12.1733   11.4601    1.8851 C   0  0  0  0  0  0  0  0  0  0  0  0
   13.4418   12.0985    2.4907 C   0  0  0  0  0  0  0  0  0  0  0  0
   13.8532   11.3140    3.7547 C   0  0  0  0  0  0  0  0  0  0  0  0
   15.1233    7.8799    3.5874 O   0  0  0  0  0  0  0  0  0  0  0  0
   16.2804    9.7789    4.4935 C   0  0  0  0  0  0  0  0  0  0  0  0
   17.7811    8.0545    5.7841 N   0  0  0  0  0  0  0  0  0  0  0  0
   17.1507    8.8445    5.2135 C   0  0  0  0  0  0  0  0  0  0  0  0
  1  5  1  0  0  0
  4  9  1  0  0  0
 22 24  1  0  0  0
 22 15  1  0  0  0
 15 14  1  0  0  0
 16 14  1  0  0  0
 16 17  1  0  0  0
 17 18  1  0  0  0
 18 19  1  0  0  0
 19  1  1  0  0  0
 19 20  1  0  0  0
  6  2  1  0  0  0
  7  3  2  0  0  0
  8  4  1  0  0  0
 10 11  1  0  0  0
 11  8  2  0  0  0
 12  1  1  0  0  0
 12  6  2  0  0  0
 20 14  1  0  0  0
 15 21  2  0  0  0
  5  2  2  0  0  0
  6  7  1  0  0  0
  8  3  1  0  0  0
  9 10  2  0  0  0
 11 12  1  0  0  0
 24 23  3  0  0  0
  4 13  1  0  0  0
M  END
> <minimizedAffinity>
-8.14952

$$$$
CHEMBL2152300


 24 27  0  0  0  0  0  0  0  0999 V2000
   13.3229   12.2023    3.0207 N   0  0  0  0  0  0  0  0  0  0  0  0
   11.5152   11.7631    1.7676 N   0  0  0  0  0  0  0  0  0  0  0  0
   12.8631    8.2581    1.8527 N   0  0  0  0  0  0  0  0  0  0  0  0
   14.9169    7.7955    3.0675 N   0  0  0  0  0  0  0  0  0  0  0  0
   12.1973   12.6978    2.3968 C   0  0  0  0  0  0  0  0  0  0  0  0
   12.2164   10.6051    1.9811 C   0  0  0  0  0  0  0  0  0  0  0  0
   12.0052    9.2826    1.5488 C   0  0  0  0  0  0  0  0  0  0  0  0
   13.9103    8.6045    2.6205 C   0  0  0  0  0  0  0  0  0  0  0  0
   15.7915    8.5340    3.8408 C   0  0  0  0  0  0  0  0  0  0  0  0
   15.3344    9.8402    3.9041 C   0  0  0  0  0  0  0  0  0  0  0  0
   14.1708    9.8663    3.1026 C   0  0  0  0  0  0  0  0  0  0  0  0
   13.3223   10.8768    2.7667 C   0  0  0  0  0  0  0  0  0  0  0  0
   14.9853    6.8103    2.8556 H   0  0  0  0  0  0  0  0  0  0  0  0
   15.0512   15.3078    4.2951 N   0  0  0  0  0  0  0  0  0  0  0  0
   15.7446   16.3932    3.7516 C   0  0  0  0  0  0  0  0  0  0  0  0
   15.2560   14.9822    5.7086 C   0  0  0  0  0  0  0  0  0  0  0  0
   15.5349   13.4932    5.8985 C   0  0  0  0  0  0  0  0  0  0  0  0
   14.4521   12.6368    5.2417 C   0  0  0  0  0  0  0  0  0  0  0  0
   14.3070   12.9947    3.7469 C   0  0  0  0  0  0  0  0  0  0  0  0
   14.0254   14.5061    3.6098 C   0  0  0  0  0  0  0  0  0  0  0  0
   16.5462   17.0380    4.4279 O   0  0  0  0  0  0  0  0  0  0  0  0
   15.4793   16.7332    2.2984 C   0  0  0  0  0  0  0  0  0  0  0  0
   15.7336   14.7015    0.6556 N   0  0  0  0  0  0  0  0  0  0  0  0
   15.6102   15.5721    1.4132 C   0  0  0  0  0  0  0  0  0  0  0  0
  1  5  1  0  0  0
  4  9  1  0  0  0
 22 24  1  0  0  0
 22 15  1  0  0  0
 15 14  1  0  0  0
 16 14  1  0  0  0
 16 17  1  0  0  0
 17 18  1  0  0  0
 18 19  1  0  0  0
 19  1  1  0  0  0
 19 20  1  0  0  0
  6  2  1  0  0  0
  7  3  2  0  0  0
  8  4  1  0  0  0
 10 11  1  0  0  0
 11  8  2  0  0  0
 12  1  1  0  0  0
 12  6  2  0  0  0
 20 14  1  0  0  0
 15 21  2  0  0  0
  5  2  2  0  0  0
  6  7  1  0  0  0
  8  3  1  0  0  0
  9 10  2  0  0  0
 11 12  1  0  0  0
 24 23  3  0  0  0
  4 13  1  0  0  0
M  END
> <minimizedAffinity>
-8.11753

$$$$
CHEMBL2152300


 24 27  0  0  0  0  0  0  0  0999 V2000
   16.4047   12.1038    3.7913 N   0  0  0  0  0  0  0  0  0  0  0  0
   17.9410   10.7144    4.6516 N   0  0  0  0  0  0  0  0  0  0  0  0
   15.3219    8.1124    3.9600 N   0  0  0  0  0  0  0  0  0  0  0  0
   13.2064    8.7792    2.9660 N   0  0  0  0  0  0  0  0  0  0  0  0
   17.6575   11.9649    4.3506 C   0  0  0  0  0  0  0  0  0  0  0  0
   16.8335    9.9981    4.2796 C   0  0  0  0  0  0  0  0  0  0  0  0
   16.5244    8.6280    4.3675 C   0  0  0  0  0  0  0  0  0  0  0  0
   14.4664    9.0102    3.4422 C   0  0  0  0  0  0  0  0  0  0  0  0
   12.6634    9.9640    2.5080 C   0  0  0  0  0  0  0  0  0  0  0  0
   13.5943   10.9753    2.6803 C   0  0  0  0  0  0  0  0  0  0  0  0
   14.7044   10.3575    3.2991 C   0  0  0  0  0  0  0  0  0  0  0  0
   15.8940   10.8558    3.7356 C   0  0  0  0  0  0  0  0  0  0  0  0
   12.7645    7.8710    2.9563 H   0  0  0  0  0  0  0  0  0  0  0  0
   15.5116   15.7657    4.0112 N   0  0  0  0  0  0  0  0  0  0  0  0
   14.8161   16.6019    4.8894 C   0  0  0  0  0  0  0  0  0  0  0  0
   15.7075   16.2089    2.6287 C   0  0  0  0  0  0  0  0  0  0  0  0
   15.3296   15.1113    1.6371 C   0  0  0  0  0  0  0  0  0  0  0  0
   16.0573   13.8040    1.9514 C   0  0  0  0  0  0  0  0  0  0  0  0
   15.7841   13.3648    3.4060 C   0  0  0  0  0  0  0  0  0  0  0  0
   16.1829   14.5056    4.3661 C   0  0  0  0  0  0  0  0  0  0  0  0
   14.3360   17.6685    4.5050 O   0  0  0  0  0  0  0  0  0  0  0  0
   14.6671   16.1368    6.3244 C   0  0  0  0  0  0  0  0  0  0  0  0
   13.6367   18.0252    7.8290 N   0  0  0  0  0  0  0  0  0  0  0  0
   14.0782   17.1611    7.1923 C   0  0  0  0  0  0  0  0  0  0  0  0
  1  5  1  0  0  0
  4  9  1  0  0  0
 22 24  1  0  0  0
 22 15  1  0  0  0
 15 14  1  0  0  0
 16 14  1  0  0  0
 16 17  1  0  0  0
 17 18  1  0  0  0
 18 19  1  0  0  0
 19  1  1  0  0  0
 19 20  1  0  0  0
  6  2  1  0  0  0
  7  3  2  0  0  0
  8  4  1  0  0  0
 10 11  1  0  0  0
 11  8  2  0  0  0
 12  1  1  0  0  0
 12  6  2  0  0  0
 20 14  1  0  0  0
 15 21  2  0  0  0
  5  2  2  0  0  0
  6  7  1  0  0  0
  8  3  1  0  0  0
  9 10  2  0  0  0
 11 12  1  0  0  0
 24 23  3  0  0  0
  4 13  1  0  0  0
M  END
> <minimizedAffinity>
-8.09809

$$$$
CHEMBL2152300


 24 27  0  0  0  0  0  0  0  0999 V2000
   17.8130   12.7149    4.4101 N   0  0  0  0  0  0  0  0  0  0  0  0
   19.7747   12.0796    5.2927 N   0  0  0  0  0  0  0  0  0  0  0  0
   18.1961    8.6722    5.2115 N   0  0  0  0  0  0  0  0  0  0  0  0
   15.9374    8.4205    4.3495 N   0  0  0  0  0  0  0  0  0  0  0  0
   19.0601   13.0969    4.8577 C   0  0  0  0  0  0  0  0  0  0  0  0
   18.9698   10.9825    5.1289 C   0  0  0  0  0  0  0  0  0  0  0  0
   19.1613    9.6207    5.4275 C   0  0  0  0  0  0  0  0  0  0  0  0
   17.0587    9.1351    4.6653 C   0  0  0  0  0  0  0  0  0  0  0  0
   14.9955    9.2645    3.7937 C   0  0  0  0  0  0  0  0  0  0  0  0
   15.5231   10.5443    3.7386 C   0  0  0  0  0  0  0  0  0  0  0  0
   16.8060   10.4431    4.3224 C   0  0  0  0  0  0  0  0  0  0  0  0
   17.7666   11.3756    4.5705 C   0  0  0  0  0  0  0  0  0  0  0  0
   15.8393    7.4271    4.5035 H   0  0  0  0  0  0  0  0  0  0  0  0
   15.8606   15.9277    4.0619 N   0  0  0  0  0  0  0  0  0  0  0  0
   15.0843   16.7515    4.8824 C   0  0  0  0  0  0  0  0  0  0  0  0
   15.6879   16.0217    2.6102 C   0  0  0  0  0  0  0  0  0  0  0  0
   15.5236   14.6399    1.9822 C   0  0  0  0  0  0  0  0  0  0  0  0
   16.6649   13.7065    2.3863 C   0  0  0  0  0  0  0  0  0  0  0  0
   16.7752   13.6150    3.9235 C   0  0  0  0  0  0  0  0  0  0  0  0
   16.9408   15.0339    4.5078 C   0  0  0  0  0  0  0  0  0  0  0  0
   14.2395   17.5091    4.4050 O   0  0  0  0  0  0  0  0  0  0  0  0
   15.3160   16.6638    6.3779 C   0  0  0  0  0  0  0  0  0  0  0  0
   13.4395   17.8020    7.8184 N   0  0  0  0  0  0  0  0  0  0  0  0
   14.2387   17.2851    7.1541 C   0  0  0  0  0  0  0  0  0  0  0  0
  1  5  1  0  0  0
  4  9  1  0  0  0
 22 24  1  0  0  0
 22 15  1  0  0  0
 15 14  1  0  0  0
 16 14  1  0  0  0
 16 17  1  0  0  0
 17 18  1  0  0  0
 18 19  1  0  0  0
 19  1  1  0  0  0
 19 20  1  0  0  0
  6  2  1  0  0  0
  7  3  2  0  0  0
  8  4  1  0  0  0
 10 11  1  0  0  0
 11  8  2  0  0  0
 12  1  1  0  0  0
 12  6  2  0  0  0
 20 14  1  0  0  0
 15 21  2  0  0  0
  5  2  2  0  0  0
  6  7  1  0  0  0
  8  3  1  0  0  0
  9 10  2  0  0  0
 11 12  1  0  0  0
 24 23  3  0  0  0
  4 13  1  0  0  0
M  END
> <minimizedAffinity>
-8.07297

$$$$
CHEMBL2152300


 24 27  0  0  0  0  0  0  0  0999 V2000
   17.5675   11.7189    4.3222 N   0  0  0  0  0  0  0  0  0  0  0  0
   19.3185   11.6010    5.7190 N   0  0  0  0  0  0  0  0  0  0  0  0
   18.3190    7.9875    5.9484 N   0  0  0  0  0  0  0  0  0  0  0  0
   16.4066    7.1922    4.6763 N   0  0  0  0  0  0  0  0  0  0  0  0
   18.5954   12.3896    4.9510 C   0  0  0  0  0  0  0  0  0  0  0  0
   18.7468   10.3615    5.5961 C   0  0  0  0  0  0  0  0  0  0  0  0
   19.0527    9.1205    6.1850 C   0  0  0  0  0  0  0  0  0  0  0  0
   17.2988    8.1423    5.0875 C   0  0  0  0  0  0  0  0  0  0  0  0
   15.5209    7.7520    3.7760 C   0  0  0  0  0  0  0  0  0  0  0  0
   15.8550    9.0840    3.5936 C   0  0  0  0  0  0  0  0  0  0  0  0
   16.9531    9.3130    4.4531 C   0  0  0  0  0  0  0  0  0  0  0  0
   17.6766   10.4345    4.7224 C   0  0  0  0  0  0  0  0  0  0  0  0
   16.4179    6.2331    4.9926 H   0  0  0  0  0  0  0  0  0  0  0  0
   14.1284   12.7446    3.1491 N   0  0  0  0  0  0  0  0  0  0  0  0
   12.9505   12.1104    2.7436 C   0  0  0  0  0  0  0  0  0  0  0  0
   14.3465   14.1379    2.7528 C   0  0  0  0  0  0  0  0  0  0  0  0
   15.7404   14.3331    2.1614 C   0  0  0  0  0  0  0  0  0  0  0  0
   16.8227   13.8065    3.1041 C   0  0  0  0  0  0  0  0  0  0  0  0
   16.5646   12.3257    3.4564 C   0  0  0  0  0  0  0  0  0  0  0  0
   15.1470   12.1828    4.0500 C   0  0  0  0  0  0  0  0  0  0  0  0
   12.1306   12.6890    2.0303 O   0  0  0  0  0  0  0  0  0  0  0  0
   12.7320   10.6833    3.2055 C   0  0  0  0  0  0  0  0  0  0  0  0
   12.5493    9.0489    1.1594 N   0  0  0  0  0  0  0  0  0  0  0  0
   12.6173    9.7393    2.0898 C   0  0  0  0  0  0  0  0  0  0  0  0
  1  5  1  0  0  0
  4  9  1  0  0  0
 22 24  1  0  0  0
 22 15  1  0  0  0
 15 14  1  0  0  0
 16 14  1  0  0  0
 16 17  1  0  0  0
 17 18  1  0  0  0
 18 19  1  0  0  0
 19  1  1  0  0  0
 19 20  1  0  0  0
  6  2  1  0  0  0
  7  3  2  0  0  0
  8  4  1  0  0  0
 10 11  1  0  0  0
 11  8  2  0  0  0
 12  1  1  0  0  0
 12  6  2  0  0  0
 20 14  1  0  0  0
 15 21  2  0  0  0
  5  2  2  0  0  0
  6  7  1  0  0  0
  8  3  1  0  0  0
  9 10  2  0  0  0
 11 12  1  0  0  0
 24 23  3  0  0  0
  4 13  1  0  0  0
M  END
> <minimizedAffinity>
-7.96907

$$$$
CHEMBL2152300


 24 27  0  0  0  0  0  0  0  0999 V2000
   17.7717   12.9336    5.2173 N   0  0  0  0  0  0  0  0  0  0  0  0
   19.7779   11.9313    5.2529 N   0  0  0  0  0  0  0  0  0  0  0  0
   20.8309   15.1010    6.9714 N   0  0  0  0  0  0  0  0  0  0  0  0
   19.1881   16.8471    7.3718 N   0  0  0  0  0  0  0  0  0  0  0  0
   18.5193   11.8252    4.8794 C   0  0  0  0  0  0  0  0  0  0  0  0
   19.8679   13.1570    5.8593 C   0  0  0  0  0  0  0  0  0  0  0  0
   20.9507   13.8438    6.4393 C   0  0  0  0  0  0  0  0  0  0  0  0
   19.5925   15.6209    6.9241 C   0  0  0  0  0  0  0  0  0  0  0  0
   17.8323   16.9934    7.1506 C   0  0  0  0  0  0  0  0  0  0  0  0
   17.3509   15.8360    6.5609 C   0  0  0  0  0  0  0  0  0  0  0  0
   18.4811   15.0035    6.3986 C   0  0  0  0  0  0  0  0  0  0  0  0
   18.6257   13.7661    5.8491 C   0  0  0  0  0  0  0  0  0  0  0  0
   19.8045   17.5228    7.8003 H   0  0  0  0  0  0  0  0  0  0  0  0
   14.7819   14.3512    3.3989 N   0  0  0  0  0  0  0  0  0  0  0  0
   14.1913   15.6049    3.2155 C   0  0  0  0  0  0  0  0  0  0  0  0
   13.9688   13.1537    3.1731 C   0  0  0  0  0  0  0  0  0  0  0  0
   14.1013   12.1685    4.3318 C   0  0  0  0  0  0  0  0  0  0  0  0
   15.5673   11.8460    4.6221 C   0  0  0  0  0  0  0  0  0  0  0  0
   16.3664   13.1394    4.8906 C   0  0  0  0  0  0  0  0  0  0  0  0
   16.2011   14.0984    3.6926 C   0  0  0  0  0  0  0  0  0  0  0  0
   13.0018   15.7091    2.9153 O   0  0  0  0  0  0  0  0  0  0  0  0
   15.0688   16.8249    3.4135 C   0  0  0  0  0  0  0  0  0  0  0  0
   14.4012   18.2941    5.4841 N   0  0  0  0  0  0  0  0  0  0  0  0
   14.6544   17.6393    4.5599 C   0  0  0  0  0  0  0  0  0  0  0  0
  1  5  1  0  0  0
  4  9  1  0  0  0
 22 24  1  0  0  0
 22 15  1  0  0  0
 15 14  1  0  0  0
 16 14  1  0  0  0
 16 17  1  0  0  0
 17 18  1  0  0  0
 18 19  1  0  0  0
 19  1  1  0  0  0
 19 20  1  0  0  0
  6  2  1  0  0  0
  7  3  2  0  0  0
  8  4  1  0  0  0
 10 11  1  0  0  0
 11  8  2  0  0  0
 12  1  1  0  0  0
 12  6  2  0  0  0
 20 14  1  0  0  0
 15 21  2  0  0  0
  5  2  2  0  0  0
  6  7  1  0  0  0
  8  3  1  0  0  0
  9 10  2  0  0  0
 11 12  1  0  0  0
 24 23  3  0  0  0
  4 13  1  0  0  0
M  END
> <minimizedAffinity>
-7.68357

$$$$
CHEMBL2152300


 24 27  0  0  0  0  0  0  0  0999 V2000
   14.6443   14.1565    3.7059 N   0  0  0  0  0  0  0  0  0  0  0  0
   14.8049   16.1958    4.6260 N   0  0  0  0  0  0  0  0  0  0  0  0
   18.1344   14.9122    5.7989 N   0  0  0  0  0  0  0  0  0  0  0  0
   18.8186   12.6538    5.2162 N   0  0  0  0  0  0  0  0  0  0  0  0
   14.0484   15.3818    3.9191 C   0  0  0  0  0  0  0  0  0  0  0  0
   15.9441   15.4822    4.8930 C   0  0  0  0  0  0  0  0  0  0  0  0
   17.1058   15.8000    5.6210 C   0  0  0  0  0  0  0  0  0  0  0  0
   17.9645   13.7206    5.2012 C   0  0  0  0  0  0  0  0  0  0  0  0
   18.2812   11.6239    4.4685 C   0  0  0  0  0  0  0  0  0  0  0  0
   17.0644   12.0379    3.9518 C   0  0  0  0  0  0  0  0  0  0  0  0
   16.8725   13.3449    4.4536 C   0  0  0  0  0  0  0  0  0  0  0  0
   15.8482   14.2305    4.3115 C   0  0  0  0  0  0  0  0  0  0  0  0
   19.7039   12.6466    5.7023 H   0  0  0  0  0  0  0  0  0  0  0  0
   13.4235   10.6213    3.1888 N   0  0  0  0  0  0  0  0  0  0  0  0
   13.9816    9.3411    3.1274 C   0  0  0  0  0  0  0  0  0  0  0  0
   12.1052   10.8407    2.5889 C   0  0  0  0  0  0  0  0  0  0  0  0
   12.1046   12.0754    1.6910 C   0  0  0  0  0  0  0  0  0  0  0  0
   12.6317   13.3031    2.4341 C   0  0  0  0  0  0  0  0  0  0  0  0
   14.0373   13.0288    3.0104 C   0  0  0  0  0  0  0  0  0  0  0  0
   13.9838   11.7753    3.9093 C   0  0  0  0  0  0  0  0  0  0  0  0
   13.4043    8.4237    2.5436 O   0  0  0  0  0  0  0  0  0  0  0  0
   15.3266    9.1338    3.7950 C   0  0  0  0  0  0  0  0  0  0  0  0
   16.0467    6.6181    4.0048 N   0  0  0  0  0  0  0  0  0  0  0  0
   15.6871    7.7178    3.9126 C   0  0  0  0  0  0  0  0  0  0  0  0
  1  5  1  0  0  0
  4  9  1  0  0  0
 22 24  1  0  0  0
 22 15  1  0  0  0
 15 14  1  0  0  0
 16 14  1  0  0  0
 16 17  1  0  0  0
 17 18  1  0  0  0
 18 19  1  0  0  0
 19  1  1  0  0  0
 19 20  1  0  0  0
  6  2  1  0  0  0
  7  3  2  0  0  0
  8  4  1  0  0  0
 10 11  1  0  0  0
 11  8  2  0  0  0
 12  1  1  0  0  0
 12  6  2  0  0  0
 20 14  1  0  0  0
 15 21  2  0  0  0
  5  2  2  0  0  0
  6  7  1  0  0  0
  8  3  1  0  0  0
  9 10  2  0  0  0
 11 12  1  0  0  0
 24 23  3  0  0  0
  4 13  1  0  0  0
M  END
> <minimizedAffinity>
-7.67283

$$$$
CHEMBL2314501


 27 30  0  0  0  0  0  0  0  0999 V2000
   13.2747   15.6605    3.5457 N   0  0  0  0  0  0  0  0  0  0  0  0
   12.3965   13.6492    2.6094 N   0  0  0  0  0  0  0  0  0  0  0  0
   13.6483   11.6991    3.1595 N   0  0  0  0  0  0  0  0  0  0  0  0
   11.3845   15.6806    2.2280 N   0  0  0  0  0  0  0  0  0  0  0  0
   12.3844   14.9654    2.8218 C   0  0  0  0  0  0  0  0  0  0  0  0
   13.4167   13.0468    3.2260 C   0  0  0  0  0  0  0  0  0  0  0  0
   14.3991   13.6393    4.0067 C   0  0  0  0  0  0  0  0  0  0  0  0
   14.3362   15.0515    4.1596 C   0  0  0  0  0  0  0  0  0  0  0  0
   15.2202   12.5530    4.4296 C   0  0  0  0  0  0  0  0  0  0  0  0
   14.7622   11.3560    3.8915 C   0  0  0  0  0  0  0  0  0  0  0  0
   13.0597   11.0707    2.6345 H   0  0  0  0  0  0  0  0  0  0  0  0
   11.4327   16.6818    2.2991 H   0  0  0  0  0  0  0  0  0  0  0  0
   10.7743   15.1934    1.5958 H   0  0  0  0  0  0  0  0  0  0  0  0
   15.2440   15.8679    4.8242 N   0  0  0  0  0  0  0  0  0  0  0  0
   15.5570   19.1065    5.2937 N   0  0  0  0  0  0  0  0  0  0  0  0
   15.9830   16.8842    4.0564 C   0  0  0  0  0  0  0  0  0  0  0  0
   15.2739   18.2561    4.1156 C   0  0  0  0  0  0  0  0  0  0  0  0
   15.5611   18.4521    6.6051 C   0  0  0  0  0  0  0  0  0  0  0  0
   14.6983   17.2037    6.8105 C   0  0  0  0  0  0  0  0  0  0  0  0
   15.3897   15.9575    6.2632 C   0  0  0  0  0  0  0  0  0  0  0  0
   14.6934   20.2877    5.2788 C   0  0  0  0  0  0  0  0  0  0  0  0
   15.2972    9.9916    4.0365 C   0  0  0  0  0  0  0  0  0  0  0  0
   14.7068    8.8810    3.4172 C   0  0  0  0  0  0  0  0  0  0  0  0
   15.2425    7.5967    3.5838 C   0  0  0  0  0  0  0  0  0  0  0  0
   16.3761    7.4018    4.3690 C   0  0  0  0  0  0  0  0  0  0  0  0
   16.9787    8.4901    4.9871 C   0  0  0  0  0  0  0  0  0  0  0  0
   16.4434    9.7697    4.8201 C   0  0  0  0  0  0  0  0  0  0  0  0
  3  6  1  0  0  0
  5  2  2  0  0  0
  5  4  1  0  0  0
  6  7  2  0  0  0
  7  9  1  0  0  0
  8 14  1  0  0  0
  8  1  2  0  0  0
 16 14  1  0  0  0
 16 17  1  0  0  0
 17 15  1  0  0  0
 18 15  1  0  0  0
 18 19  1  0  0  0
 19 20  1  0  0  0
 20 14  1  0  0  0
 21 15  1  0  0  0
 10  3  1  0  0  0
 10 22  1  0  0  0
 23 24  2  0  0  0
 25 26  2  0  0  0
 27 22  2  0  0  0
  5  1  1  0  0  0
  6  2  1  0  0  0
  7  8  1  0  0  0
  9 10  2  0  0  0
 22 23  1  0  0  0
 24 25  1  0  0  0
 26 27  1  0  0  0
  3 11  1  0  0  0
  4 12  1  0  0  0
  4 13  1  0  0  0
M  END
> <minimizedAffinity>
-9.64143

$$$$
CHEMBL2314501


 27 30  0  0  0  0  0  0  0  0999 V2000
   17.3443   15.2815    6.1015 N   0  0  0  0  0  0  0  0  0  0  0  0
   17.9833   13.0495    5.5508 N   0  0  0  0  0  0  0  0  0  0  0  0
   16.2829   11.8017    4.4442 N   0  0  0  0  0  0  0  0  0  0  0  0
   19.4348   14.4705    6.6325 N   0  0  0  0  0  0  0  0  0  0  0  0
   18.2110   14.2581    6.0658 C   0  0  0  0  0  0  0  0  0  0  0  0
   16.7577   12.9443    5.0304 C   0  0  0  0  0  0  0  0  0  0  0  0
   15.7706   13.9188    4.9931 C   0  0  0  0  0  0  0  0  0  0  0  0
   16.0784   15.1713    5.5917 C   0  0  0  0  0  0  0  0  0  0  0  0
   14.6804   13.2948    4.3184 C   0  0  0  0  0  0  0  0  0  0  0  0
   14.9948   11.9803    3.9937 C   0  0  0  0  0  0  0  0  0  0  0  0
   16.8322   10.9594    4.3695 H   0  0  0  0  0  0  0  0  0  0  0  0
   19.5720   15.3422    7.1133 H   0  0  0  0  0  0  0  0  0  0  0  0
   20.0553   13.6843    6.7116 H   0  0  0  0  0  0  0  0  0  0  0  0
   15.2314   16.2630    5.7436 N   0  0  0  0  0  0  0  0  0  0  0  0
   15.6489   19.4984    6.1492 N   0  0  0  0  0  0  0  0  0  0  0  0
   15.3278   17.0743    6.9687 C   0  0  0  0  0  0  0  0  0  0  0  0
   16.2539   18.2941    6.7614 C   0  0  0  0  0  0  0  0  0  0  0  0
   14.7729   19.2921    4.9925 C   0  0  0  0  0  0  0  0  0  0  0  0
   15.0053   18.0710    4.0981 C   0  0  0  0  0  0  0  0  0  0  0  0
   14.3850   16.8149    4.7050 C   0  0  0  0  0  0  0  0  0  0  0  0
   16.6842   20.4958    5.8755 C   0  0  0  0  0  0  0  0  0  0  0  0
   14.1818   10.9568    3.3152 C   0  0  0  0  0  0  0  0  0  0  0  0
   13.0026   11.2676    2.6237 C   0  0  0  0  0  0  0  0  0  0  0  0
   12.2530   10.2641    1.9950 C   0  0  0  0  0  0  0  0  0  0  0  0
   12.6698    8.9362    2.0454 C   0  0  0  0  0  0  0  0  0  0  0  0
   13.8381    8.6084    2.7215 C   0  0  0  0  0  0  0  0  0  0  0  0
   14.5841    9.6098    3.3477 C   0  0  0  0  0  0  0  0  0  0  0  0
  3  6  1  0  0  0
  5  2  2  0  0  0
  5  4  1  0  0  0
  6  7  2  0  0  0
  7  9  1  0  0  0
  8 14  1  0  0  0
  8  1  2  0  0  0
 16 14  1  0  0  0
 16 17  1  0  0  0
 17 15  1  0  0  0
 18 15  1  0  0  0
 18 19  1  0  0  0
 19 20  1  0  0  0
 20 14  1  0  0  0
 21 15  1  0  0  0
 10  3  1  0  0  0
 10 22  1  0  0  0
 23 24  2  0  0  0
 25 26  2  0  0  0
 27 22  2  0  0  0
  5  1  1  0  0  0
  6  2  1  0  0  0
  7  8  1  0  0  0
  9 10  2  0  0  0
 22 23  1  0  0  0
 24 25  1  0  0  0
 26 27  1  0  0  0
  3 11  1  0  0  0
  4 12  1  0  0  0
  4 13  1  0  0  0
M  END
> <minimizedAffinity>
-9.47846

$$$$
CHEMBL2314501


 27 30  0  0  0  0  0  0  0  0999 V2000
   13.3847   14.0094    2.6689 N   0  0  0  0  0  0  0  0  0  0  0  0
   12.7468   11.7282    2.3817 N   0  0  0  0  0  0  0  0  0  0  0  0
   14.2714   10.1696    3.3404 N   0  0  0  0  0  0  0  0  0  0  0  0
   11.4557   13.4395    1.5446 N   0  0  0  0  0  0  0  0  0  0  0  0
   12.5666   13.0406    2.2307 C   0  0  0  0  0  0  0  0  0  0  0  0
   13.8635   11.4456    3.0577 C   0  0  0  0  0  0  0  0  0  0  0  0
   14.7889   12.3432    3.5710 C   0  0  0  0  0  0  0  0  0  0  0  0
   14.5431   13.7246    3.3408 C   0  0  0  0  0  0  0  0  0  0  0  0
   15.7656   11.5220    4.2072 C   0  0  0  0  0  0  0  0  0  0  0  0
   15.4507   10.1773    4.0497 C   0  0  0  0  0  0  0  0  0  0  0  0
   13.7513    9.3552    3.0518 H   0  0  0  0  0  0  0  0  0  0  0  0
   11.3717   14.4194    1.3384 H   0  0  0  0  0  0  0  0  0  0  0  0
   10.8908   12.7274    1.1167 H   0  0  0  0  0  0  0  0  0  0  0  0
   15.3597   14.7947    3.6879 N   0  0  0  0  0  0  0  0  0  0  0  0
   15.1666   17.2720    5.8402 N   0  0  0  0  0  0  0  0  0  0  0  0
   14.8424   16.1648    3.5337 C   0  0  0  0  0  0  0  0  0  0  0  0
   14.2313   16.6847    4.8545 C   0  0  0  0  0  0  0  0  0  0  0  0
   16.4219   16.5548    6.0804 C   0  0  0  0  0  0  0  0  0  0  0  0
   16.4584   15.0384    5.8698 C   0  0  0  0  0  0  0  0  0  0  0  0
   16.6214   14.6889    4.3927 C   0  0  0  0  0  0  0  0  0  0  0  0
   14.4610   17.5648    7.0884 C   0  0  0  0  0  0  0  0  0  0  0  0
   16.1699    8.9800    4.5165 C   0  0  0  0  0  0  0  0  0  0  0  0
   17.2356    9.0473    5.4249 C   0  0  0  0  0  0  0  0  0  0  0  0
   17.8991    7.8852    5.8412 C   0  0  0  0  0  0  0  0  0  0  0  0
   17.5078    6.6386    5.3590 C   0  0  0  0  0  0  0  0  0  0  0  0
   16.4509    6.5501    4.4620 C   0  0  0  0  0  0  0  0  0  0  0  0
   15.7907    7.7095    4.0478 C   0  0  0  0  0  0  0  0  0  0  0  0
  3  6  1  0  0  0
  5  2  2  0  0  0
  5  4  1  0  0  0
  6  7  2  0  0  0
  7  9  1  0  0  0
  8 14  1  0  0  0
  8  1  2  0  0  0
 16 14  1  0  0  0
 16 17  1  0  0  0
 17 15  1  0  0  0
 18 15  1  0  0  0
 18 19  1  0  0  0
 19 20  1  0  0  0
 20 14  1  0  0  0
 21 15  1  0  0  0
 10  3  1  0  0  0
 10 22  1  0  0  0
 23 24  2  0  0  0
 25 26  2  0  0  0
 27 22  2  0  0  0
  5  1  1  0  0  0
  6  2  1  0  0  0
  7  8  1  0  0  0
  9 10  2  0  0  0
 22 23  1  0  0  0
 24 25  1  0  0  0
 26 27  1  0  0  0
  3 11  1  0  0  0
  4 12  1  0  0  0
  4 13  1  0  0  0
M  END
> <minimizedAffinity>
-9.14622

$$$$
CHEMBL2314501


 27 30  0  0  0  0  0  0  0  0999 V2000
   20.5475   15.0724    6.0248 N   0  0  0  0  0  0  0  0  0  0  0  0
   20.5362   12.7469    5.4906 N   0  0  0  0  0  0  0  0  0  0  0  0
   18.4073   11.9201    4.8147 N   0  0  0  0  0  0  0  0  0  0  0  0
   22.4624   13.8001    6.1811 N   0  0  0  0  0  0  0  0  0  0  0  0
   21.1330   13.8741    5.8793 C   0  0  0  0  0  0  0  0  0  0  0  0
   19.2389   12.9260    5.2283 C   0  0  0  0  0  0  0  0  0  0  0  0
   18.5127   14.1042    5.3289 C   0  0  0  0  0  0  0  0  0  0  0  0
   19.2128   15.2562    5.7811 C   0  0  0  0  0  0  0  0  0  0  0  0
   17.1949   13.7456    4.9192 C   0  0  0  0  0  0  0  0  0  0  0  0
   17.1292   12.3906    4.6164 C   0  0  0  0  0  0  0  0  0  0  0  0
   18.7237   10.9718    4.6828 H   0  0  0  0  0  0  0  0  0  0  0  0
   22.8895   14.6206    6.5738 H   0  0  0  0  0  0  0  0  0  0  0  0
   22.8908   12.8914    6.1825 H   0  0  0  0  0  0  0  0  0  0  0  0
   18.6855   16.5176    6.0324 N   0  0  0  0  0  0  0  0  0  0  0  0
   16.0524   18.1918    4.9976 N   0  0  0  0  0  0  0  0  0  0  0  0
   18.5233   17.4582    4.9110 C   0  0  0  0  0  0  0  0  0  0  0  0
   17.0960   17.3876    4.3227 C   0  0  0  0  0  0  0  0  0  0  0  0
   16.0267   18.1595    6.4626 C   0  0  0  0  0  0  0  0  0  0  0  0
   16.5539   16.9155    7.1836 C   0  0  0  0  0  0  0  0  0  0  0  0
   18.0774   16.9359    7.2794 C   0  0  0  0  0  0  0  0  0  0  0  0
   14.7396   17.8923    4.4246 C   0  0  0  0  0  0  0  0  0  0  0  0
   15.9838   11.5786    4.1719 C   0  0  0  0  0  0  0  0  0  0  0  0
   14.7278   12.1358    3.8940 C   0  0  0  0  0  0  0  0  0  0  0  0
   13.6601   11.3287    3.4783 C   0  0  0  0  0  0  0  0  0  0  0  0
   13.8303    9.9543    3.3319 C   0  0  0  0  0  0  0  0  0  0  0  0
   15.0685    9.3835    3.5977 C   0  0  0  0  0  0  0  0  0  0  0  0
   16.1317   10.1894    4.0121 C   0  0  0  0  0  0  0  0  0  0  0  0
  3  6  1  0  0  0
  5  2  2  0  0  0
  5  4  1  0  0  0
  6  7  2  0  0  0
  7  9  1  0  0  0
  8 14  1  0  0  0
  8  1  2  0  0  0
 16 14  1  0  0  0
 16 17  1  0  0  0
 17 15  1  0  0  0
 18 15  1  0  0  0
 18 19  1  0  0  0
 19 20  1  0  0  0
 20 14  1  0  0  0
 21 15  1  0  0  0
 10  3  1  0  0  0
 10 22  1  0  0  0
 23 24  2  0  0  0
 25 26  2  0  0  0
 27 22  2  0  0  0
  5  1  1  0  0  0
  6  2  1  0  0  0
  7  8  1  0  0  0
  9 10  2  0  0  0
 22 23  1  0  0  0
 24 25  1  0  0  0
 26 27  1  0  0  0
  3 11  1  0  0  0
  4 12  1  0  0  0
  4 13  1  0  0  0
M  END
> <minimizedAffinity>
-9.07449

$$$$
CHEMBL2314501


 27 30  0  0  0  0  0  0  0  0999 V2000
   12.1223   12.3910    1.7273 N   0  0  0  0  0  0  0  0  0  0  0  0
   12.0862   10.0086    1.8543 N   0  0  0  0  0  0  0  0  0  0  0  0
   13.9235    9.0758    3.0489 N   0  0  0  0  0  0  0  0  0  0  0  0
   10.4329   11.1667    0.7492 N   0  0  0  0  0  0  0  0  0  0  0  0
   11.5871   11.1863    1.4780 C   0  0  0  0  0  0  0  0  0  0  0  0
   13.2172   10.1385    2.5528 C   0  0  0  0  0  0  0  0  0  0  0  0
   13.8719   11.3156    2.8868 C   0  0  0  0  0  0  0  0  0  0  0  0
   13.2944   12.5287    2.4214 C   0  0  0  0  0  0  0  0  0  0  0  0
   15.0037   10.8906    3.6427 C   0  0  0  0  0  0  0  0  0  0  0  0
   15.0413    9.5038    3.7282 C   0  0  0  0  0  0  0  0  0  0  0  0
   13.6334    8.1192    2.9154 H   0  0  0  0  0  0  0  0  0  0  0  0
   10.1119   12.0426    0.3755 H   0  0  0  0  0  0  0  0  0  0  0  0
   10.0779   10.2720    0.4613 H   0  0  0  0  0  0  0  0  0  0  0  0
   13.8055   13.8136    2.5633 N   0  0  0  0  0  0  0  0  0  0  0  0
   15.8412   15.2921    4.6790 N   0  0  0  0  0  0  0  0  0  0  0  0
   13.5293   14.5571    3.8040 C   0  0  0  0  0  0  0  0  0  0  0  0
   14.6773   14.3893    4.8249 C   0  0  0  0  0  0  0  0  0  0  0  0
   16.3598   15.5007    3.3243 C   0  0  0  0  0  0  0  0  0  0  0  0
   16.1748   14.3927    2.2835 C   0  0  0  0  0  0  0  0  0  0  0  0
   14.7736   14.4302    1.6788 C   0  0  0  0  0  0  0  0  0  0  0  0
   16.8992   14.9010    5.6113 C   0  0  0  0  0  0  0  0  0  0  0  0
   16.0235    8.6263    4.3871 C   0  0  0  0  0  0  0  0  0  0  0  0
   16.0441    7.2382    4.1922 C   0  0  0  0  0  0  0  0  0  0  0  0
   16.9917    6.4356    4.8419 C   0  0  0  0  0  0  0  0  0  0  0  0
   17.9339    7.0063    5.6940 C   0  0  0  0  0  0  0  0  0  0  0  0
   17.9333    8.3805    5.8965 C   0  0  0  0  0  0  0  0  0  0  0  0
   16.9880    9.1791    5.2483 C   0  0  0  0  0  0  0  0  0  0  0  0
  3  6  1  0  0  0
  5  2  2  0  0  0
  5  4  1  0  0  0
  6  7  2  0  0  0
  7  9  1  0  0  0
  8 14  1  0  0  0
  8  1  2  0  0  0
 16 14  1  0  0  0
 16 17  1  0  0  0
 17 15  1  0  0  0
 18 15  1  0  0  0
 18 19  1  0  0  0
 19 20  1  0  0  0
 20 14  1  0  0  0
 21 15  1  0  0  0
 10  3  1  0  0  0
 10 22  1  0  0  0
 23 24  2  0  0  0
 25 26  2  0  0  0
 27 22  2  0  0  0
  5  1  1  0  0  0
  6  2  1  0  0  0
  7  8  1  0  0  0
  9 10  2  0  0  0
 22 23  1  0  0  0
 24 25  1  0  0  0
 26 27  1  0  0  0
  3 11  1  0  0  0
  4 12  1  0  0  0
  4 13  1  0  0  0
M  END
> <minimizedAffinity>
-9.05295

$$$$
CHEMBL2314501


 27 30  0  0  0  0  0  0  0  0999 V2000
   16.0786   16.9975    4.7204 N   0  0  0  0  0  0  0  0  0  0  0  0
   13.9071   16.3315    3.9894 N   0  0  0  0  0  0  0  0  0  0  0  0
   13.7116   14.0015    3.5360 N   0  0  0  0  0  0  0  0  0  0  0  0
   14.3730   18.5294    4.4881 N   0  0  0  0  0  0  0  0  0  0  0  0
   14.7971   17.2345    4.4021 C   0  0  0  0  0  0  0  0  0  0  0  0
   14.4240   15.1013    3.9328 C   0  0  0  0  0  0  0  0  0  0  0  0
   15.7217   14.7166    4.2387 C   0  0  0  0  0  0  0  0  0  0  0  0
   16.6203   15.7426    4.6405 C   0  0  0  0  0  0  0  0  0  0  0  0
   15.7335   13.3065    4.0275 C   0  0  0  0  0  0  0  0  0  0  0  0
   14.4929   12.8694    3.5782 C   0  0  0  0  0  0  0  0  0  0  0  0
   12.7438   14.0514    3.2568 H   0  0  0  0  0  0  0  0  0  0  0  0
   15.0667   19.2259    4.6965 H   0  0  0  0  0  0  0  0  0  0  0  0
   13.4508   18.7418    4.1508 H   0  0  0  0  0  0  0  0  0  0  0  0
   17.9758   15.6132    4.9199 N   0  0  0  0  0  0  0  0  0  0  0  0
   19.9169   16.3865    7.4578 N   0  0  0  0  0  0  0  0  0  0  0  0
   18.7660   16.8256    5.1921 C   0  0  0  0  0  0  0  0  0  0  0  0
   18.8604   17.1039    6.7093 C   0  0  0  0  0  0  0  0  0  0  0  0
   20.0925   14.9611    7.1660 C   0  0  0  0  0  0  0  0  0  0  0  0
   18.8885   14.1545    6.6711 C   0  0  0  0  0  0  0  0  0  0  0  0
   18.6606   14.3620    5.1759 C   0  0  0  0  0  0  0  0  0  0  0  0
   19.7704   16.6331    8.8928 C   0  0  0  0  0  0  0  0  0  0  0  0
   14.0456   11.5137    3.2164 C   0  0  0  0  0  0  0  0  0  0  0  0
   14.7460   10.3616    3.6003 C   0  0  0  0  0  0  0  0  0  0  0  0
   14.2912    9.0883    3.2316 C   0  0  0  0  0  0  0  0  0  0  0  0
   13.1298    8.9456    2.4762 C   0  0  0  0  0  0  0  0  0  0  0  0
   12.4188   10.0747    2.0901 C   0  0  0  0  0  0  0  0  0  0  0  0
   12.8736   11.3432    2.4583 C   0  0  0  0  0  0  0  0  0  0  0  0
  3  6  1  0  0  0
  5  2  2  0  0  0
  5  4  1  0  0  0
  6  7  2  0  0  0
  7  9  1  0  0  0
  8 14  1  0  0  0
  8  1  2  0  0  0
 16 14  1  0  0  0
 16 17  1  0  0  0
 17 15  1  0  0  0
 18 15  1  0  0  0
 18 19  1  0  0  0
 19 20  1  0  0  0
 20 14  1  0  0  0
 21 15  1  0  0  0
 10  3  1  0  0  0
 10 22  1  0  0  0
 23 24  2  0  0  0
 25 26  2  0  0  0
 27 22  2  0  0  0
  5  1  1  0  0  0
  6  2  1  0  0  0
  7  8  1  0  0  0
  9 10  2  0  0  0
 22 23  1  0  0  0
 24 25  1  0  0  0
 26 27  1  0  0  0
  3 11  1  0  0  0
  4 12  1  0  0  0
  4 13  1  0  0  0
M  END
> <minimizedAffinity>
-9.04477

$$$$
CHEMBL2314501


 27 30  0  0  0  0  0  0  0  0999 V2000
   12.7113   16.0228    3.2307 N   0  0  0  0  0  0  0  0  0  0  0  0
   11.9151   13.9226    2.4255 N   0  0  0  0  0  0  0  0  0  0  0  0
   13.2929   12.0732    3.0208 N   0  0  0  0  0  0  0  0  0  0  0  0
   10.7779   15.8744    1.9858 N   0  0  0  0  0  0  0  0  0  0  0  0
   11.8366   15.2452    2.5749 C   0  0  0  0  0  0  0  0  0  0  0  0
   12.9885   13.4080    3.0314 C   0  0  0  0  0  0  0  0  0  0  0  0
   13.9628   14.0912    3.7451 C   0  0  0  0  0  0  0  0  0  0  0  0
   13.8262   15.5038    3.8325 C   0  0  0  0  0  0  0  0  0  0  0  0
   14.8579   13.0737    4.1884 C   0  0  0  0  0  0  0  0  0  0  0  0
   14.4492   11.8282    3.7258 C   0  0  0  0  0  0  0  0  0  0  0  0
   12.7225   11.3884    2.5491 H   0  0  0  0  0  0  0  0  0  0  0  0
   10.7724   16.8791    2.0069 H   0  0  0  0  0  0  0  0  0  0  0  0
   10.1743   15.3238    1.4011 H   0  0  0  0  0  0  0  0  0  0  0  0
   14.7094   16.4005    4.4226 N   0  0  0  0  0  0  0  0  0  0  0  0
   17.3136   16.1400    6.4118 N   0  0  0  0  0  0  0  0  0  0  0  0
   14.8060   16.4432    5.8914 C   0  0  0  0  0  0  0  0  0  0  0  0
   15.9569   15.5479    6.4033 C   0  0  0  0  0  0  0  0  0  0  0  0
   17.7181   16.9016    5.2269 C   0  0  0  0  0  0  0  0  0  0  0  0
   17.0977   16.5459    3.8727 C   0  0  0  0  0  0  0  0  0  0  0  0
   15.7136   17.1711    3.7172 C   0  0  0  0  0  0  0  0  0  0  0  0
   18.3029   15.1219    6.7670 C   0  0  0  0  0  0  0  0  0  0  0  0
   15.0647   10.5038    3.9157 C   0  0  0  0  0  0  0  0  0  0  0  0
   14.5489    9.3416    3.3254 C   0  0  0  0  0  0  0  0  0  0  0  0
   15.1600    8.0978    3.5345 C   0  0  0  0  0  0  0  0  0  0  0  0
   16.2958    7.9956    4.3340 C   0  0  0  0  0  0  0  0  0  0  0  0
   16.8251    9.1363    4.9240 C   0  0  0  0  0  0  0  0  0  0  0  0
   16.2147   10.3753    4.7147 C   0  0  0  0  0  0  0  0  0  0  0  0
  3  6  1  0  0  0
  5  2  2  0  0  0
  5  4  1  0  0  0
  6  7  2  0  0  0
  7  9  1  0  0  0
  8 14  1  0  0  0
  8  1  2  0  0  0
 16 14  1  0  0  0
 16 17  1  0  0  0
 17 15  1  0  0  0
 18 15  1  0  0  0
 18 19  1  0  0  0
 19 20  1  0  0  0
 20 14  1  0  0  0
 21 15  1  0  0  0
 10  3  1  0  0  0
 10 22  1  0  0  0
 23 24  2  0  0  0
 25 26  2  0  0  0
 27 22  2  0  0  0
  5  1  1  0  0  0
  6  2  1  0  0  0
  7  8  1  0  0  0
  9 10  2  0  0  0
 22 23  1  0  0  0
 24 25  1  0  0  0
 26 27  1  0  0  0
  3 11  1  0  0  0
  4 12  1  0  0  0
  4 13  1  0  0  0
M  END
> <minimizedAffinity>
-8.96443

$$$$
CHEMBL2314501


 27 30  0  0  0  0  0  0  0  0999 V2000
   18.3879   15.2245    5.5370 N   0  0  0  0  0  0  0  0  0  0  0  0
   18.4497   12.8785    5.9683 N   0  0  0  0  0  0  0  0  0  0  0  0
   16.7156   11.6512    4.8917 N   0  0  0  0  0  0  0  0  0  0  0  0
   20.0058   14.2999    6.8925 N   0  0  0  0  0  0  0  0  0  0  0  0
   18.9106   14.1230    6.0969 C   0  0  0  0  0  0  0  0  0  0  0  0
   17.3746   12.8165    5.1782 C   0  0  0  0  0  0  0  0  0  0  0  0
   16.7395   13.8686    4.5338 C   0  0  0  0  0  0  0  0  0  0  0  0
   17.2715   15.1700    4.7463 C   0  0  0  0  0  0  0  0  0  0  0  0
   15.6717   13.2535    3.8165 C   0  0  0  0  0  0  0  0  0  0  0  0
   15.6502   11.8838    4.0520 C   0  0  0  0  0  0  0  0  0  0  0  0
   17.0011   10.7585    5.2639 H   0  0  0  0  0  0  0  0  0  0  0  0
   20.2913   15.2459    7.0755 H   0  0  0  0  0  0  0  0  0  0  0  0
   20.3438   13.5046    7.4050 H   0  0  0  0  0  0  0  0  0  0  0  0
   16.7641   16.3748    4.2738 N   0  0  0  0  0  0  0  0  0  0  0  0
   14.0374   18.1288    4.8171 N   0  0  0  0  0  0  0  0  0  0  0  0
   15.4669   16.3770    3.5768 C   0  0  0  0  0  0  0  0  0  0  0  0
   14.3093   16.6987    4.5488 C   0  0  0  0  0  0  0  0  0  0  0  0
   15.1941   18.9949    5.0615 C   0  0  0  0  0  0  0  0  0  0  0  0
   16.4642   18.3807    5.6572 C   0  0  0  0  0  0  0  0  0  0  0  0
   17.2982   17.6856    4.5840 C   0  0  0  0  0  0  0  0  0  0  0  0
   13.0295   18.2587    5.8700 C   0  0  0  0  0  0  0  0  0  0  0  0
   14.7272   10.8545    3.5445 C   0  0  0  0  0  0  0  0  0  0  0  0
   15.0903    9.5049    3.4348 C   0  0  0  0  0  0  0  0  0  0  0  0
   14.1851    8.5554    2.9415 C   0  0  0  0  0  0  0  0  0  0  0  0
   12.9037    8.9381    2.5525 C   0  0  0  0  0  0  0  0  0  0  0  0
   12.5230   10.2698    2.6581 C   0  0  0  0  0  0  0  0  0  0  0  0
   13.4266   11.2150    3.1498 C   0  0  0  0  0  0  0  0  0  0  0  0
  3  6  1  0  0  0
  5  2  2  0  0  0
  5  4  1  0  0  0
  6  7  2  0  0  0
  7  9  1  0  0  0
  8 14  1  0  0  0
  8  1  2  0  0  0
 16 14  1  0  0  0
 16 17  1  0  0  0
 17 15  1  0  0  0
 18 15  1  0  0  0
 18 19  1  0  0  0
 19 20  1  0  0  0
 20 14  1  0  0  0
 21 15  1  0  0  0
 10  3  1  0  0  0
 10 22  1  0  0  0
 23 24  2  0  0  0
 25 26  2  0  0  0
 27 22  2  0  0  0
  5  1  1  0  0  0
  6  2  1  0  0  0
  7  8  1  0  0  0
  9 10  2  0  0  0
 22 23  1  0  0  0
 24 25  1  0  0  0
 26 27  1  0  0  0
  3 11  1  0  0  0
  4 12  1  0  0  0
  4 13  1  0  0  0
M  END
> <minimizedAffinity>
-8.69040

$$$$
CHEMBL2314501


 27 30  0  0  0  0  0  0  0  0999 V2000
   16.7783   16.9234    5.3577 N   0  0  0  0  0  0  0  0  0  0  0  0
   14.9926   17.1461    3.7910 N   0  0  0  0  0  0  0  0  0  0  0  0
   13.9864   15.0783    3.1709 N   0  0  0  0  0  0  0  0  0  0  0  0
   16.1444   18.9872    4.5524 N   0  0  0  0  0  0  0  0  0  0  0  0
   15.9570   17.6350    4.5711 C   0  0  0  0  0  0  0  0  0  0  0  0
   14.8980   15.8166    3.8768 C   0  0  0  0  0  0  0  0  0  0  0  0
   15.6727   14.9640    4.6504 C   0  0  0  0  0  0  0  0  0  0  0  0
   16.7021   15.5583    5.4308 C   0  0  0  0  0  0  0  0  0  0  0  0
   15.1460   13.6659    4.3847 C   0  0  0  0  0  0  0  0  0  0  0  0
   14.1130   13.7382    3.4575 C   0  0  0  0  0  0  0  0  0  0  0  0
   13.3244   15.4947    2.5343 H   0  0  0  0  0  0  0  0  0  0  0  0
   16.9358   19.3472    5.0563 H   0  0  0  0  0  0  0  0  0  0  0  0
   15.6126   19.5229    3.8894 H   0  0  0  0  0  0  0  0  0  0  0  0
   17.6455   14.9071    6.2169 N   0  0  0  0  0  0  0  0  0  0  0  0
   20.7800   13.9978    5.8236 N   0  0  0  0  0  0  0  0  0  0  0  0
   18.2271   13.6440    5.7322 C   0  0  0  0  0  0  0  0  0  0  0  0
   19.5609   13.8896    4.9911 C   0  0  0  0  0  0  0  0  0  0  0  0
   20.6891   14.8106    7.0397 C   0  0  0  0  0  0  0  0  0  0  0  0
   19.6844   15.9655    7.0832 C   0  0  0  0  0  0  0  0  0  0  0  0
   18.2773   15.4628    7.3967 C   0  0  0  0  0  0  0  0  0  0  0  0
   21.9209   14.3873    4.9940 C   0  0  0  0  0  0  0  0  0  0  0  0
   13.2926   12.6629    2.8747 C   0  0  0  0  0  0  0  0  0  0  0  0
   12.1465   12.9201    2.1095 C   0  0  0  0  0  0  0  0  0  0  0  0
   11.3882   11.8691    1.5761 C   0  0  0  0  0  0  0  0  0  0  0  0
   11.7633   10.5461    1.7967 C   0  0  0  0  0  0  0  0  0  0  0  0
   12.8985   10.2705    2.5482 C   0  0  0  0  0  0  0  0  0  0  0  0
   13.6532   11.3193    3.0793 C   0  0  0  0  0  0  0  0  0  0  0  0
  3  6  1  0  0  0
  5  2  2  0  0  0
  5  4  1  0  0  0
  6  7  2  0  0  0
  7  9  1  0  0  0
  8 14  1  0  0  0
  8  1  2  0  0  0
 16 14  1  0  0  0
 16 17  1  0  0  0
 17 15  1  0  0  0
 18 15  1  0  0  0
 18 19  1  0  0  0
 19 20  1  0  0  0
 20 14  1  0  0  0
 21 15  1  0  0  0
 10  3  1  0  0  0
 10 22  1  0  0  0
 23 24  2  0  0  0
 25 26  2  0  0  0
 27 22  2  0  0  0
  5  1  1  0  0  0
  6  2  1  0  0  0
  7  8  1  0  0  0
  9 10  2  0  0  0
 22 23  1  0  0  0
 24 25  1  0  0  0
 26 27  1  0  0  0
  3 11  1  0  0  0
  4 12  1  0  0  0
  4 13  1  0  0  0
M  END
> <minimizedAffinity>
-8.63421

$$$$
CHEMBL3393342


 25 28  0  0  0  0  0  0  0  0999 V2000
   17.7458   13.2762    4.3747 C   0  0  0  0  0  0  0  0  0  0  0  0
   17.8191   11.8615    4.6136 C   0  0  0  0  0  0  0  0  0  0  0  0
   19.0359   11.6318    5.2380 C   0  0  0  0  0  0  0  0  0  0  0  0
   18.7597    9.4376    5.2107 C   0  0  0  0  0  0  0  0  0  0  0  0
   17.0167   10.7277    4.3517 C   0  0  0  0  0  0  0  0  0  0  0  0
   18.8731   13.8470    4.9401 C   0  0  0  0  0  0  0  0  0  0  0  0
   19.5658   10.4478    5.5738 N   0  0  0  0  0  0  0  0  0  0  0  0
   17.5448    9.5082    4.6337 N   0  0  0  0  0  0  0  0  0  0  0  0
   19.6381   12.8374    5.4661 N   0  0  0  0  0  0  0  0  0  0  0  0
   20.5343   12.9377    5.9201 H   0  0  0  0  0  0  0  0  0  0  0  0
   15.1989    9.6503    3.1479 C   0  0  0  0  0  0  0  0  0  0  0  0
   13.6626    9.6816    3.0437 C   0  0  0  0  0  0  0  0  0  0  0  0
   13.1515   11.1034    2.7980 C   0  0  0  0  0  0  0  0  0  0  0  0
   13.6172   12.0839    3.8749 C   0  0  0  0  0  0  0  0  0  0  0  0
   14.8021   11.5802    4.6981 C   0  0  0  0  0  0  0  0  0  0  0  0
   13.1710    8.7332    1.9502 C   0  0  0  0  0  0  0  0  0  0  0  0
   15.7180   10.8192    3.8562 N   0  0  0  0  0  0  0  0  0  0  0  0
   15.0482   15.7525    3.5360 C   0  0  0  0  0  0  0  0  0  0  0  0
   15.9577   14.9743    4.2575 C   0  0  0  0  0  0  0  0  0  0  0  0
   16.7740   14.0386    3.6059 C   0  0  0  0  0  0  0  0  0  0  0  0
   16.6408   13.8643    2.2240 C   0  0  0  0  0  0  0  0  0  0  0  0
   15.7211   14.6300    1.5018 C   0  0  0  0  0  0  0  0  0  0  0  0
   14.9306   15.5778    2.1549 C   0  0  0  0  0  0  0  0  0  0  0  0
   14.2681   16.7489    4.2108 C   0  0  0  0  0  0  0  0  0  0  0  0
   13.6253   17.5407    4.7628 N   0  0  0  0  0  0  0  0  0  0  0  0
 18 24  1  0  0  0
 19 20  2  0  0  0
 20  1  1  0  0  0
 21 22  2  0  0  0
 23 18  2  0  0  0
  1  2  1  0  0  0
  2  3  2  0  0  0
  3  9  1  0  0  0
  4  7  2  0  0  0
  5  8  2  0  0  0
  5 17  1  0  0  0
 11 17  1  0  0  0
 11 12  1  0  0  0
 12 13  1  0  0  0
 12 16  1  0  0  0
 13 14  1  0  0  0
 14 15  1  0  0  0
 15 17  1  0  0  0
  9  6  1  0  0  0
 18 19  1  0  0  0
 20 21  1  0  0  0
 22 23  1  0  0  0
  3  7  1  0  0  0
  4  8  1  0  0  0
  5  2  1  0  0  0
  6  1  2  0  0  0
 24 25  3  0  0  0
  9 10  1  0  0  0
M  END
> <minimizedAffinity>
-8.68330

$$$$
CHEMBL3393342


 25 28  0  0  0  0  0  0  0  0999 V2000
   13.3198   12.2423    3.0761 C   0  0  0  0  0  0  0  0  0  0  0  0
   13.5606   10.8468    2.8349 C   0  0  0  0  0  0  0  0  0  0  0  0
   12.4989   10.3926    2.0670 C   0  0  0  0  0  0  0  0  0  0  0  0
   13.2036    8.2973    2.1355 C   0  0  0  0  0  0  0  0  0  0  0  0
   14.5362    9.8902    3.1971 C   0  0  0  0  0  0  0  0  0  0  0  0
   12.1777   12.5890    2.3749 C   0  0  0  0  0  0  0  0  0  0  0  0
   12.2614    9.1342    1.6728 N   0  0  0  0  0  0  0  0  0  0  0  0
   14.3010    8.5962    2.8567 N   0  0  0  0  0  0  0  0  0  0  0  0
   11.6996   11.4586    1.7626 N   0  0  0  0  0  0  0  0  0  0  0  0
   10.8630   11.3881    1.2018 H   0  0  0  0  0  0  0  0  0  0  0  0
   16.2390    9.2631    4.8162 C   0  0  0  0  0  0  0  0  0  0  0  0
   17.7263    9.5118    5.1298 C   0  0  0  0  0  0  0  0  0  0  0  0
   18.0379   11.0091    5.1923 C   0  0  0  0  0  0  0  0  0  0  0  0
   17.6515   11.7387    3.9053 C   0  0  0  0  0  0  0  0  0  0  0  0
   16.6751   10.9609    3.0238 C   0  0  0  0  0  0  0  0  0  0  0  0
   18.1322    8.8196    6.4309 C   0  0  0  0  0  0  0  0  0  0  0  0
   15.7208   10.2280    3.8477 N   0  0  0  0  0  0  0  0  0  0  0  0
   14.8007   15.4246    4.4150 C   0  0  0  0  0  0  0  0  0  0  0  0
   14.1736   14.5056    3.5691 C   0  0  0  0  0  0  0  0  0  0  0  0
   14.0191   13.1665    3.9557 C   0  0  0  0  0  0  0  0  0  0  0  0
   14.5359   12.7494    5.1872 C   0  0  0  0  0  0  0  0  0  0  0  0
   15.1774   13.6626    6.0288 C   0  0  0  0  0  0  0  0  0  0  0  0
   15.3038   14.9998    5.6472 C   0  0  0  0  0  0  0  0  0  0  0  0
   14.8921   16.8030    4.0297 C   0  0  0  0  0  0  0  0  0  0  0  0
   14.9689   17.9224    3.7368 N   0  0  0  0  0  0  0  0  0  0  0  0
 18 24  1  0  0  0
 19 20  2  0  0  0
 20  1  1  0  0  0
 21 22  2  0  0  0
 23 18  2  0  0  0
  1  2  1  0  0  0
  2  3  2  0  0  0
  3  9  1  0  0  0
  4  7  2  0  0  0
  5  8  2  0  0  0
  5 17  1  0  0  0
 11 17  1  0  0  0
 11 12  1  0  0  0
 12 13  1  0  0  0
 12 16  1  0  0  0
 13 14  1  0  0  0
 14 15  1  0  0  0
 15 17  1  0  0  0
  9  6  1  0  0  0
 18 19  1  0  0  0
 20 21  1  0  0  0
 22 23  1  0  0  0
  3  7  1  0  0  0
  4  8  1  0  0  0
  5  2  1  0  0  0
  6  1  2  0  0  0
 24 25  3  0  0  0
  9 10  1  0  0  0
M  END
> <minimizedAffinity>
-8.27874

$$$$
CHEMBL3393342


 25 28  0  0  0  0  0  0  0  0999 V2000
   13.7602   10.5402    2.6282 C   0  0  0  0  0  0  0  0  0  0  0  0
   14.8133    9.9296    3.3910 C   0  0  0  0  0  0  0  0  0  0  0  0
   14.6868    8.5608    3.2084 C   0  0  0  0  0  0  0  0  0  0  0  0
   16.3061    8.1092    4.6457 C   0  0  0  0  0  0  0  0  0  0  0  0
   15.8516   10.3620    4.2472 C   0  0  0  0  0  0  0  0  0  0  0  0
   13.1024    9.5271    1.9521 C   0  0  0  0  0  0  0  0  0  0  0  0
   15.4039    7.5933    3.7959 N   0  0  0  0  0  0  0  0  0  0  0  0
   16.5651    9.4065    4.8981 N   0  0  0  0  0  0  0  0  0  0  0  0
   13.6830    8.3366    2.3084 N   0  0  0  0  0  0  0  0  0  0  0  0
   13.4031    7.4166    2.0006 H   0  0  0  0  0  0  0  0  0  0  0  0
   15.3072   12.4947    5.2813 C   0  0  0  0  0  0  0  0  0  0  0  0
   15.9885   13.7951    5.7474 C   0  0  0  0  0  0  0  0  0  0  0  0
   16.8363   14.4090    4.6306 C   0  0  0  0  0  0  0  0  0  0  0  0
   17.8883   13.4364    4.0963 C   0  0  0  0  0  0  0  0  0  0  0  0
   17.6146   11.9751    4.4497 C   0  0  0  0  0  0  0  0  0  0  0  0
   14.9550   14.7995    6.2569 C   0  0  0  0  0  0  0  0  0  0  0  0
   16.1819   11.7047    4.4163 N   0  0  0  0  0  0  0  0  0  0  0  0
   13.8675   14.2807    2.2961 C   0  0  0  0  0  0  0  0  0  0  0  0
   14.2661   12.9437    2.3797 C   0  0  0  0  0  0  0  0  0  0  0  0
   13.3236   11.9277    2.5934 C   0  0  0  0  0  0  0  0  0  0  0  0
   11.9778   12.2717    2.7610 C   0  0  0  0  0  0  0  0  0  0  0  0
   11.5779   13.6093    2.6934 C   0  0  0  0  0  0  0  0  0  0  0  0
   12.5195   14.6122    2.4544 C   0  0  0  0  0  0  0  0  0  0  0  0
   14.8371   15.2987    2.0132 C   0  0  0  0  0  0  0  0  0  0  0  0
   15.6347   16.1115    1.7939 N   0  0  0  0  0  0  0  0  0  0  0  0
 18 24  1  0  0  0
 19 20  2  0  0  0
 20  1  1  0  0  0
 21 22  2  0  0  0
 23 18  2  0  0  0
  1  2  1  0  0  0
  2  3  2  0  0  0
  3  9  1  0  0  0
  4  7  2  0  0  0
  5  8  2  0  0  0
  5 17  1  0  0  0
 11 17  1  0  0  0
 11 12  1  0  0  0
 12 13  1  0  0  0
 12 16  1  0  0  0
 13 14  1  0  0  0
 14 15  1  0  0  0
 15 17  1  0  0  0
  9  6  1  0  0  0
 18 19  1  0  0  0
 20 21  1  0  0  0
 22 23  1  0  0  0
  3  7  1  0  0  0
  4  8  1  0  0  0
  5  2  1  0  0  0
  6  1  2  0  0  0
 24 25  3  0  0  0
  9 10  1  0  0  0
M  END
> <minimizedAffinity>
-8.07031

$$$$
CHEMBL3393342


 25 28  0  0  0  0  0  0  0  0999 V2000
   15.2698   10.5387    3.9968 C   0  0  0  0  0  0  0  0  0  0  0  0
   14.1464   10.3658    3.1182 C   0  0  0  0  0  0  0  0  0  0  0  0
   13.9674    8.9981    2.9749 C   0  0  0  0  0  0  0  0  0  0  0  0
   12.3570    9.2550    1.4809 C   0  0  0  0  0  0  0  0  0  0  0  0
   13.2659   11.2002    2.3925 C   0  0  0  0  0  0  0  0  0  0  0  0
   15.6627    9.2784    4.4136 C   0  0  0  0  0  0  0  0  0  0  0  0
   13.0872    8.3729    2.1815 N   0  0  0  0  0  0  0  0  0  0  0  0
   12.3946   10.6000    1.5402 N   0  0  0  0  0  0  0  0  0  0  0  0
   14.8571    8.3587    3.7920 N   0  0  0  0  0  0  0  0  0  0  0  0
   14.9184    7.3543    3.8746 H   0  0  0  0  0  0  0  0  0  0  0  0
   14.4326   13.3166    2.1207 C   0  0  0  0  0  0  0  0  0  0  0  0
   14.1395   14.8143    1.9127 C   0  0  0  0  0  0  0  0  0  0  0  0
   13.1660   15.3416    2.9697 C   0  0  0  0  0  0  0  0  0  0  0  0
   11.8542   14.5565    2.9966 C   0  0  0  0  0  0  0  0  0  0  0  0
   11.9357   13.1939    2.3097 C   0  0  0  0  0  0  0  0  0  0  0  0
   15.4334   15.6282    1.9145 C   0  0  0  0  0  0  0  0  0  0  0  0
   13.2398   12.5847    2.5440 N   0  0  0  0  0  0  0  0  0  0  0  0
   15.9940   13.9511    5.3910 C   0  0  0  0  0  0  0  0  0  0  0  0
   15.3142   12.7952    4.9971 C   0  0  0  0  0  0  0  0  0  0  0  0
   15.9921   11.7505    4.3526 C   0  0  0  0  0  0  0  0  0  0  0  0
   17.3554   11.8941    4.0724 C   0  0  0  0  0  0  0  0  0  0  0  0
   18.0349   13.0555    4.4510 C   0  0  0  0  0  0  0  0  0  0  0  0
   17.3576   14.0798    5.1156 C   0  0  0  0  0  0  0  0  0  0  0  0
   15.2973   14.9808    6.1058 C   0  0  0  0  0  0  0  0  0  0  0  0
   14.7266   15.8199    6.6670 N   0  0  0  0  0  0  0  0  0  0  0  0
 18 24  1  0  0  0
 19 20  2  0  0  0
 20  1  1  0  0  0
 21 22  2  0  0  0
 23 18  2  0  0  0
  1  2  1  0  0  0
  2  3  2  0  0  0
  3  9  1  0  0  0
  4  7  2  0  0  0
  5  8  2  0  0  0
  5 17  1  0  0  0
 11 17  1  0  0  0
 11 12  1  0  0  0
 12 13  1  0  0  0
 12 16  1  0  0  0
 13 14  1  0  0  0
 14 15  1  0  0  0
 15 17  1  0  0  0
  9  6  1  0  0  0
 18 19  1  0  0  0
 20 21  1  0  0  0
 22 23  1  0  0  0
  3  7  1  0  0  0
  4  8  1  0  0  0
  5  2  1  0  0  0
  6  1  2  0  0  0
 24 25  3  0  0  0
  9 10  1  0  0  0
M  END
> <minimizedAffinity>
-8.02792

$$$$
CHEMBL3393342


 25 28  0  0  0  0  0  0  0  0999 V2000
   16.6197   10.9978    4.3681 C   0  0  0  0  0  0  0  0  0  0  0  0
   17.6667   11.9542    4.5987 C   0  0  0  0  0  0  0  0  0  0  0  0
   18.7004   11.2634    5.2130 C   0  0  0  0  0  0  0  0  0  0  0  0
   19.8976   13.0995    5.5085 C   0  0  0  0  0  0  0  0  0  0  0  0
   17.8637   13.3385    4.3920 C   0  0  0  0  0  0  0  0  0  0  0  0
   17.0970    9.7619    4.7694 C   0  0  0  0  0  0  0  0  0  0  0  0
   19.8477   11.7696    5.6851 N   0  0  0  0  0  0  0  0  0  0  0  0
   18.9937   13.8933    4.9030 N   0  0  0  0  0  0  0  0  0  0  0  0
   18.3615    9.9406    5.2697 N   0  0  0  0  0  0  0  0  0  0  0  0
   18.9567    9.2274    5.6652 H   0  0  0  0  0  0  0  0  0  0  0  0
   16.5925   15.4079    4.2657 C   0  0  0  0  0  0  0  0  0  0  0  0
   15.9894   16.3676    3.2229 C   0  0  0  0  0  0  0  0  0  0  0  0
   15.1084   15.6169    2.2212 C   0  0  0  0  0  0  0  0  0  0  0  0
   15.8617   14.4903    1.5131 C   0  0  0  0  0  0  0  0  0  0  0  0
   17.1472   14.0658    2.2220 C   0  0  0  0  0  0  0  0  0  0  0  0
   15.2019   17.4871    3.9035 C   0  0  0  0  0  0  0  0  0  0  0  0
   16.9734   14.1289    3.6686 N   0  0  0  0  0  0  0  0  0  0  0  0
   13.2873   10.3626    2.7544 C   0  0  0  0  0  0  0  0  0  0  0  0
   14.6131   10.2057    3.1680 C   0  0  0  0  0  0  0  0  0  0  0  0
   15.2551   11.2080    3.9094 C   0  0  0  0  0  0  0  0  0  0  0  0
   14.5633   12.3890    4.1997 C   0  0  0  0  0  0  0  0  0  0  0  0
   13.2423   12.5556    3.7741 C   0  0  0  0  0  0  0  0  0  0  0  0
   12.6023   11.5416    3.0586 C   0  0  0  0  0  0  0  0  0  0  0  0
   12.6276    9.3001    2.0527 C   0  0  0  0  0  0  0  0  0  0  0  0
   12.0770    8.4494    1.4888 N   0  0  0  0  0  0  0  0  0  0  0  0
 18 24  1  0  0  0
 19 20  2  0  0  0
 20  1  1  0  0  0
 21 22  2  0  0  0
 23 18  2  0  0  0
  1  2  1  0  0  0
  2  3  2  0  0  0
  3  9  1  0  0  0
  4  7  2  0  0  0
  5  8  2  0  0  0
  5 17  1  0  0  0
 11 17  1  0  0  0
 11 12  1  0  0  0
 12 13  1  0  0  0
 12 16  1  0  0  0
 13 14  1  0  0  0
 14 15  1  0  0  0
 15 17  1  0  0  0
  9  6  1  0  0  0
 18 19  1  0  0  0
 20 21  1  0  0  0
 22 23  1  0  0  0
  3  7  1  0  0  0
  4  8  1  0  0  0
  5  2  1  0  0  0
  6  1  2  0  0  0
 24 25  3  0  0  0
  9 10  1  0  0  0
M  END
> <minimizedAffinity>
-8.02791

$$$$
CHEMBL3393342


 25 28  0  0  0  0  0  0  0  0999 V2000
   14.5848    9.8523    3.2872 C   0  0  0  0  0  0  0  0  0  0  0  0
   13.6454   10.8333    2.8196 C   0  0  0  0  0  0  0  0  0  0  0  0
   12.6513   10.1363    2.1494 C   0  0  0  0  0  0  0  0  0  0  0  0
   11.6334   11.9910    1.5048 C   0  0  0  0  0  0  0  0  0  0  0  0
   13.5218   12.2411    2.8509 C   0  0  0  0  0  0  0  0  0  0  0  0
   14.0762    8.6075    2.9586 C   0  0  0  0  0  0  0  0  0  0  0  0
   11.6114   10.6490    1.4779 N   0  0  0  0  0  0  0  0  0  0  0  0
   12.5073   12.7966    2.1382 N   0  0  0  0  0  0  0  0  0  0  0  0
   12.9006    8.7987    2.2784 N   0  0  0  0  0  0  0  0  0  0  0  0
   12.3114    8.0796    1.8845 H   0  0  0  0  0  0  0  0  0  0  0  0
   14.6405   14.3900    3.0632 C   0  0  0  0  0  0  0  0  0  0  0  0
   15.1938   15.3374    4.1441 C   0  0  0  0  0  0  0  0  0  0  0  0
   16.1487   14.6041    5.0893 C   0  0  0  0  0  0  0  0  0  0  0  0
   15.4954   13.3900    5.7505 C   0  0  0  0  0  0  0  0  0  0  0  0
   14.2295   12.9080    5.0431 C   0  0  0  0  0  0  0  0  0  0  0  0
   15.8824   16.5456    3.5093 C   0  0  0  0  0  0  0  0  0  0  0  0
   14.3672   13.0574    3.5989 N   0  0  0  0  0  0  0  0  0  0  0  0
   17.5414    9.3438    5.5484 C   0  0  0  0  0  0  0  0  0  0  0  0
   16.2741    9.2190    4.9724 C   0  0  0  0  0  0  0  0  0  0  0  0
   15.8920   10.0363    3.8989 C   0  0  0  0  0  0  0  0  0  0  0  0
   16.7833   11.0091    3.4329 C   0  0  0  0  0  0  0  0  0  0  0  0
   18.0457   11.1469    4.0170 C   0  0  0  0  0  0  0  0  0  0  0  0
   18.4276   10.3114    5.0684 C   0  0  0  0  0  0  0  0  0  0  0  0
   17.9372    8.4559    6.6027 C   0  0  0  0  0  0  0  0  0  0  0  0
   18.2586    7.7532    7.4674 N   0  0  0  0  0  0  0  0  0  0  0  0
 18 24  1  0  0  0
 19 20  2  0  0  0
 20  1  1  0  0  0
 21 22  2  0  0  0
 23 18  2  0  0  0
  1  2  1  0  0  0
  2  3  2  0  0  0
  3  9  1  0  0  0
  4  7  2  0  0  0
  5  8  2  0  0  0
  5 17  1  0  0  0
 11 17  1  0  0  0
 11 12  1  0  0  0
 12 13  1  0  0  0
 12 16  1  0  0  0
 13 14  1  0  0  0
 14 15  1  0  0  0
 15 17  1  0  0  0
  9  6  1  0  0  0
 18 19  1  0  0  0
 20 21  1  0  0  0
 22 23  1  0  0  0
  3  7  1  0  0  0
  4  8  1  0  0  0
  5  2  1  0  0  0
  6  1  2  0  0  0
 24 25  3  0  0  0
  9 10  1  0  0  0
M  END
> <minimizedAffinity>
-8.02770

$$$$
CHEMBL3393342


 25 28  0  0  0  0  0  0  0  0999 V2000
   17.0062   16.7546    5.9772 C   0  0  0  0  0  0  0  0  0  0  0  0
   15.7113   17.2365    5.5839 C   0  0  0  0  0  0  0  0  0  0  0  0
   15.4795   18.3866    6.3233 C   0  0  0  0  0  0  0  0  0  0  0  0
   13.4226   18.6064    5.5409 C   0  0  0  0  0  0  0  0  0  0  0  0
   14.6795   16.8263    4.7091 C   0  0  0  0  0  0  0  0  0  0  0  0
   17.5346   17.6757    6.8654 C   0  0  0  0  0  0  0  0  0  0  0  0
   14.3630   19.1270    6.3451 N   0  0  0  0  0  0  0  0  0  0  0  0
   13.5150   17.5254    4.7431 N   0  0  0  0  0  0  0  0  0  0  0  0
   16.6002   18.6615    7.0559 N   0  0  0  0  0  0  0  0  0  0  0  0
   16.6847   19.4577    7.6710 H   0  0  0  0  0  0  0  0  0  0  0  0
   13.7297   14.8082    3.7400 C   0  0  0  0  0  0  0  0  0  0  0  0
   13.7829   13.9756    2.4453 C   0  0  0  0  0  0  0  0  0  0  0  0
   15.2251   13.6315    2.0652 C   0  0  0  0  0  0  0  0  0  0  0  0
   16.1009   14.8761    1.9164 C   0  0  0  0  0  0  0  0  0  0  0  0
   15.5155   16.1254    2.5734 C   0  0  0  0  0  0  0  0  0  0  0  0
   12.9408   12.7067    2.5783 C   0  0  0  0  0  0  0  0  0  0  0  0
   14.8259   15.7731    3.8091 N   0  0  0  0  0  0  0  0  0  0  0  0
   19.7070   14.3184    5.0374 C   0  0  0  0  0  0  0  0  0  0  0  0
   19.0333   15.5112    5.3146 C   0  0  0  0  0  0  0  0  0  0  0  0
   17.6709   15.5034    5.6464 C   0  0  0  0  0  0  0  0  0  0  0  0
   16.9803   14.2866    5.6598 C   0  0  0  0  0  0  0  0  0  0  0  0
   17.6476   13.0935    5.3679 C   0  0  0  0  0  0  0  0  0  0  0  0
   19.0103   13.1077    5.0639 C   0  0  0  0  0  0  0  0  0  0  0  0
   21.1145   14.3403    4.7631 C   0  0  0  0  0  0  0  0  0  0  0  0
   22.2553   14.3442    4.5549 N   0  0  0  0  0  0  0  0  0  0  0  0
 18 24  1  0  0  0
 19 20  2  0  0  0
 20  1  1  0  0  0
 21 22  2  0  0  0
 23 18  2  0  0  0
  1  2  1  0  0  0
  2  3  2  0  0  0
  3  9  1  0  0  0
  4  7  2  0  0  0
  5  8  2  0  0  0
  5 17  1  0  0  0
 11 17  1  0  0  0
 11 12  1  0  0  0
 12 13  1  0  0  0
 12 16  1  0  0  0
 13 14  1  0  0  0
 14 15  1  0  0  0
 15 17  1  0  0  0
  9  6  1  0  0  0
 18 19  1  0  0  0
 20 21  1  0  0  0
 22 23  1  0  0  0
  3  7  1  0  0  0
  4  8  1  0  0  0
  5  2  1  0  0  0
  6  1  2  0  0  0
 24 25  3  0  0  0
  9 10  1  0  0  0
M  END
> <minimizedAffinity>
-7.62745

$$$$
CHEMBL3393342


 25 28  0  0  0  0  0  0  0  0999 V2000
   16.8781   15.7957    6.0908 C   0  0  0  0  0  0  0  0  0  0  0  0
   15.8191   16.6779    5.6857 C   0  0  0  0  0  0  0  0  0  0  0  0
   15.8547   17.7581    6.5547 C   0  0  0  0  0  0  0  0  0  0  0  0
   14.0321   18.6586    5.6835 C   0  0  0  0  0  0  0  0  0  0  0  0
   14.8032   16.6877    4.7029 C   0  0  0  0  0  0  0  0  0  0  0  0
   17.5586   16.4180    7.1232 C   0  0  0  0  0  0  0  0  0  0  0  0
   14.9994   18.7882    6.6053 N   0  0  0  0  0  0  0  0  0  0  0  0
   13.8892   17.6913    4.7573 N   0  0  0  0  0  0  0  0  0  0  0  0
   16.9305   17.6090    7.3843 N   0  0  0  0  0  0  0  0  0  0  0  0
   17.1787   18.2734    8.1029 H   0  0  0  0  0  0  0  0  0  0  0  0
   13.5032   14.9497    3.6059 C   0  0  0  0  0  0  0  0  0  0  0  0
   13.3406   14.2816    2.2277 C   0  0  0  0  0  0  0  0  0  0  0  0
   14.6862   13.7947    1.6843 C   0  0  0  0  0  0  0  0  0  0  0  0
   15.7196   14.9182    1.5961 C   0  0  0  0  0  0  0  0  0  0  0  0
   15.3707   16.1458    2.4368 C   0  0  0  0  0  0  0  0  0  0  0  0
   12.3357   13.1316    2.2946 C   0  0  0  0  0  0  0  0  0  0  0  0
   14.7295   15.7419    3.6828 N   0  0  0  0  0  0  0  0  0  0  0  0
   16.4117   12.2908    4.8213 C   0  0  0  0  0  0  0  0  0  0  0  0
   16.1419   13.5755    5.3013 C   0  0  0  0  0  0  0  0  0  0  0  0
   17.1868   14.4474    5.6393 C   0  0  0  0  0  0  0  0  0  0  0  0
   18.5085   14.0023    5.5266 C   0  0  0  0  0  0  0  0  0  0  0  0
   18.7813   12.7126    5.0617 C   0  0  0  0  0  0  0  0  0  0  0  0
   17.7355   11.8601    4.7027 C   0  0  0  0  0  0  0  0  0  0  0  0
   15.3316   11.4369    4.4202 C   0  0  0  0  0  0  0  0  0  0  0  0
   14.4472   10.7621    4.0928 N   0  0  0  0  0  0  0  0  0  0  0  0
 18 24  1  0  0  0
 19 20  2  0  0  0
 20  1  1  0  0  0
 21 22  2  0  0  0
 23 18  2  0  0  0
  1  2  1  0  0  0
  2  3  2  0  0  0
  3  9  1  0  0  0
  4  7  2  0  0  0
  5  8  2  0  0  0
  5 17  1  0  0  0
 11 17  1  0  0  0
 11 12  1  0  0  0
 12 13  1  0  0  0
 12 16  1  0  0  0
 13 14  1  0  0  0
 14 15  1  0  0  0
 15 17  1  0  0  0
  9  6  1  0  0  0
 18 19  1  0  0  0
 20 21  1  0  0  0
 22 23  1  0  0  0
  3  7  1  0  0  0
  4  8  1  0  0  0
  5  2  1  0  0  0
  6  1  2  0  0  0
 24 25  3  0  0  0
  9 10  1  0  0  0
M  END
> <minimizedAffinity>
-7.60150

$$$$
CHEMBL3393342


 25 28  0  0  0  0  0  0  0  0999 V2000
   17.2706   14.2759    4.8534 C   0  0  0  0  0  0  0  0  0  0  0  0
   17.7091   15.0473    5.9832 C   0  0  0  0  0  0  0  0  0  0  0  0
   18.8302   14.4043    6.4858 C   0  0  0  0  0  0  0  0  0  0  0  0
   18.9856   15.7853    8.2064 C   0  0  0  0  0  0  0  0  0  0  0  0
   17.2790   16.2041    6.6724 C   0  0  0  0  0  0  0  0  0  0  0  0
   18.1902   13.2576    4.6699 C   0  0  0  0  0  0  0  0  0  0  0  0
   19.5240   14.7230    7.5870 N   0  0  0  0  0  0  0  0  0  0  0  0
   17.9291   16.5265    7.8210 N   0  0  0  0  0  0  0  0  0  0  0  0
   19.1323   13.3566    5.6618 N   0  0  0  0  0  0  0  0  0  0  0  0
   19.9159   12.7372    5.8092 H   0  0  0  0  0  0  0  0  0  0  0  0
   14.9850   16.9699    6.9275 C   0  0  0  0  0  0  0  0  0  0  0  0
   14.1039   18.1971    6.6274 C   0  0  0  0  0  0  0  0  0  0  0  0
   14.2135   18.6136    5.1586 C   0  0  0  0  0  0  0  0  0  0  0  0
   15.6565   18.8977    4.7399 C   0  0  0  0  0  0  0  0  0  0  0  0
   16.7016   18.3142    5.6899 C   0  0  0  0  0  0  0  0  0  0  0  0
   12.6477   17.9284    7.0066 C   0  0  0  0  0  0  0  0  0  0  0  0
   16.2551   17.0251    6.2055 N   0  0  0  0  0  0  0  0  0  0  0  0
   14.0549   13.3664    3.1374 C   0  0  0  0  0  0  0  0  0  0  0  0
   15.2502   13.2681    3.8551 C   0  0  0  0  0  0  0  0  0  0  0  0
   16.0560   14.3970    4.0617 C   0  0  0  0  0  0  0  0  0  0  0  0
   15.6680   15.6214    3.5066 C   0  0  0  0  0  0  0  0  0  0  0  0
   14.4809   15.7197    2.7751 C   0  0  0  0  0  0  0  0  0  0  0  0
   13.6716   14.5961    2.5963 C   0  0  0  0  0  0  0  0  0  0  0  0
   13.2128   12.2148    2.9915 C   0  0  0  0  0  0  0  0  0  0  0  0
   12.5253   11.2907    2.8566 N   0  0  0  0  0  0  0  0  0  0  0  0
 18 24  1  0  0  0
 19 20  2  0  0  0
 20  1  1  0  0  0
 21 22  2  0  0  0
 23 18  2  0  0  0
  1  2  1  0  0  0
  2  3  2  0  0  0
  3  9  1  0  0  0
  4  7  2  0  0  0
  5  8  2  0  0  0
  5 17  1  0  0  0
 11 17  1  0  0  0
 11 12  1  0  0  0
 12 13  1  0  0  0
 12 16  1  0  0  0
 13 14  1  0  0  0
 14 15  1  0  0  0
 15 17  1  0  0  0
  9  6  1  0  0  0
 18 19  1  0  0  0
 20 21  1  0  0  0
 22 23  1  0  0  0
  3  7  1  0  0  0
  4  8  1  0  0  0
  5  2  1  0  0  0
  6  1  2  0  0  0
 24 25  3  0  0  0
  9 10  1  0  0  0
M  END
> <minimizedAffinity>
-7.59141

$$$$
CHEMBL4468002


 34 38  0  0  0  0  0  0  0  0999 V2000
   17.7579   15.2141    5.6078 C   0  0  0  0  0  0  0  0  0  0  0  0
   17.8401   13.8506    5.9570 C   0  0  0  0  0  0  0  0  0  0  0  0
   19.0603   13.1579    5.9226 C   0  0  0  0  0  0  0  0  0  0  0  0
   20.2011   13.8407    5.4987 C   0  0  0  0  0  0  0  0  0  0  0  0
   20.1350   15.1866    5.1371 C   0  0  0  0  0  0  0  0  0  0  0  0
   18.9241   15.8697    5.1935 C   0  0  0  0  0  0  0  0  0  0  0  0
   14.9302   17.1789    4.0431 C   0  0  0  0  0  0  0  0  0  0  0  0
   16.3508   17.0737    4.5915 C   0  0  0  0  0  0  0  0  0  0  0  0
   16.4544   16.0002    5.6941 C   0  0  0  0  0  0  0  0  0  0  0  0
   15.2063   15.0875    5.7655 C   0  0  0  0  0  0  0  0  0  0  0  0
   14.4860   15.8276    3.4792 C   0  0  0  0  0  0  0  0  0  0  0  0
   14.7220   14.7443    4.4235 N   0  0  0  0  0  0  0  0  0  0  0  0
   14.4981   13.4116    4.1123 C   0  0  0  0  0  0  0  0  0  0  0  0
   15.2614   11.1897    4.2751 C   0  0  0  0  0  0  0  0  0  0  0  0
   13.4703   11.5345    3.0352 C   0  0  0  0  0  0  0  0  0  0  0  0
   13.4592   12.9023    3.2883 C   0  0  0  0  0  0  0  0  0  0  0  0
   12.3307   13.4089    2.5694 C   0  0  0  0  0  0  0  0  0  0  0  0
   11.7240   12.3613    1.9087 C   0  0  0  0  0  0  0  0  0  0  0  0
   15.3804   12.4889    4.5961 N   0  0  0  0  0  0  0  0  0  0  0  0
   14.3397   10.6240    3.4896 N   0  0  0  0  0  0  0  0  0  0  0  0
   12.4259   11.2271    2.2085 N   0  0  0  0  0  0  0  0  0  0  0  0
   12.2289   10.2917    1.8833 H   0  0  0  0  0  0  0  0  0  0  0  0
   18.8369   10.7023    5.4860 C   0  0  0  0  0  0  0  0  0  0  0  0
   19.0633   11.7948    6.3106 N   0  0  0  0  0  0  0  0  0  0  0  0
   18.7581    9.5215    6.2084 N   0  0  0  0  0  0  0  0  0  0  0  0
   18.7144   10.7663    4.2666 O   0  0  0  0  0  0  0  0  0  0  0  0
   19.3156   11.6125    7.2696 H   0  0  0  0  0  0  0  0  0  0  0  0
   18.9759    9.5698    7.1918 H   0  0  0  0  0  0  0  0  0  0  0  0
   18.4303    8.2420    5.6944 C   0  0  0  0  0  0  0  0  0  0  0  0
   19.4219    7.2637    5.6238 C   0  0  0  0  0  0  0  0  0  0  0  0
   17.9924    5.6916    4.7411 C   0  0  0  0  0  0  0  0  0  0  0  0
   16.9331    6.5798    4.7740 C   0  0  0  0  0  0  0  0  0  0  0  0
   17.1595    7.8683    5.2589 C   0  0  0  0  0  0  0  0  0  0  0  0
   19.2374    6.0021    5.1587 N   0  0  0  0  0  0  0  0  0  0  0  0
  7  8  1  0  0  0
  8  9  1  0  0  0
  9 10  1  0  0  0
  9  1  1  0  0  0
 10 12  1  0  0  0
 11 12  1  0  0  0
 11  7  1  0  0  0
 14 19  2  0  0  0
 15 20  2  0  0  0
 16 17  1  0  0  0
 16 13  2  0  0  0
 18 21  1  0  0  0
  2  3  2  0  0  0
  3 24  1  0  0  0
  4  5  2  0  0  0
  6  1  2  0  0  0
 23 25  1  0  0  0
 30 34  2  0  0  0
 31 32  2  0  0  0
 33 29  2  0  0  0
 12 13  1  0  0  0
 21 15  1  0  0  0
 24 23  1  0  0  0
 25 29  1  0  0  0
 13 19  1  0  0  0
 14 20  1  0  0  0
 15 16  1  0  0  0
 17 18  2  0  0  0
  1  2  1  0  0  0
  3  4  1  0  0  0
  5  6  1  0  0  0
 23 26  2  0  0  0
 29 30  1  0  0  0
 31 34  1  0  0  0
 32 33  1  0  0  0
 21 22  1  0  0  0
 24 27  1  0  0  0
 25 28  1  0  0  0
M  END
> <minimizedAffinity>
-9.65630

$$$$
CHEMBL4468002


 34 38  0  0  0  0  0  0  0  0999 V2000
   14.3466   13.9206    3.1506 C   0  0  0  0  0  0  0  0  0  0  0  0
   14.5266   15.1331    3.8472 C   0  0  0  0  0  0  0  0  0  0  0  0
   15.1480   16.2385    3.2455 C   0  0  0  0  0  0  0  0  0  0  0  0
   15.6221   16.1057    1.9398 C   0  0  0  0  0  0  0  0  0  0  0  0
   15.4639   14.9088    1.2405 C   0  0  0  0  0  0  0  0  0  0  0  0
   14.8288   13.8251    1.8391 C   0  0  0  0  0  0  0  0  0  0  0  0
   13.2079   10.3144    3.0997 C   0  0  0  0  0  0  0  0  0  0  0  0
   13.0568   11.7770    2.6901 C   0  0  0  0  0  0  0  0  0  0  0  0
   13.6226   12.7277    3.7647 C   0  0  0  0  0  0  0  0  0  0  0  0
   14.4714   11.9942    4.8313 C   0  0  0  0  0  0  0  0  0  0  0  0
   14.6835    9.9883    3.3397 C   0  0  0  0  0  0  0  0  0  0  0  0
   15.3155   10.9613    4.2200 N   0  0  0  0  0  0  0  0  0  0  0  0
   16.6712   10.9447    4.5113 C   0  0  0  0  0  0  0  0  0  0  0  0
   18.5587    9.6467    5.0570 C   0  0  0  0  0  0  0  0  0  0  0  0
   18.8266   11.8358    5.0592 C   0  0  0  0  0  0  0  0  0  0  0  0
   17.5096   12.0785    4.6828 C   0  0  0  0  0  0  0  0  0  0  0  0
   17.3985   13.5024    4.5987 C   0  0  0  0  0  0  0  0  0  0  0  0
   18.6146   14.0589    4.9356 C   0  0  0  0  0  0  0  0  0  0  0  0
   17.2651    9.7307    4.7039 N   0  0  0  0  0  0  0  0  0  0  0  0
   19.4145   10.6516    5.2676 N   0  0  0  0  0  0  0  0  0  0  0  0
   19.4741   13.0307    5.2062 N   0  0  0  0  0  0  0  0  0  0  0  0
   20.4436   13.1099    5.4772 H   0  0  0  0  0  0  0  0  0  0  0  0
   16.4317   17.9243    4.5797 C   0  0  0  0  0  0  0  0  0  0  0  0
   15.2704   17.4287    4.0051 N   0  0  0  0  0  0  0  0  0  0  0  0
   16.1775   19.0253    5.3833 N   0  0  0  0  0  0  0  0  0  0  0  0
   17.5497   17.4483    4.4074 O   0  0  0  0  0  0  0  0  0  0  0  0
   14.4367   17.9913    4.0757 H   0  0  0  0  0  0  0  0  0  0  0  0
   15.2393   19.3946    5.3720 H   0  0  0  0  0  0  0  0  0  0  0  0
   17.1161   19.7050    6.1992 C   0  0  0  0  0  0  0  0  0  0  0  0
   17.1162   21.0996    6.2175 C   0  0  0  0  0  0  0  0  0  0  0  0
   18.8487   21.2108    7.7275 C   0  0  0  0  0  0  0  0  0  0  0  0
   18.9315   19.8321    7.7930 C   0  0  0  0  0  0  0  0  0  0  0  0
   18.0513   19.0748    7.0192 C   0  0  0  0  0  0  0  0  0  0  0  0
   17.9564   21.8672    6.9570 N   0  0  0  0  0  0  0  0  0  0  0  0
  7  8  1  0  0  0
  8  9  1  0  0  0
  9 10  1  0  0  0
  9  1  1  0  0  0
 10 12  1  0  0  0
 11 12  1  0  0  0
 11  7  1  0  0  0
 14 19  2  0  0  0
 15 20  2  0  0  0
 16 17  1  0  0  0
 16 13  2  0  0  0
 18 21  1  0  0  0
  2  3  2  0  0  0
  3 24  1  0  0  0
  4  5  2  0  0  0
  6  1  2  0  0  0
 23 25  1  0  0  0
 30 34  2  0  0  0
 31 32  2  0  0  0
 33 29  2  0  0  0
 12 13  1  0  0  0
 21 15  1  0  0  0
 24 23  1  0  0  0
 25 29  1  0  0  0
 13 19  1  0  0  0
 14 20  1  0  0  0
 15 16  1  0  0  0
 17 18  2  0  0  0
  1  2  1  0  0  0
  3  4  1  0  0  0
  5  6  1  0  0  0
 23 26  2  0  0  0
 29 30  1  0  0  0
 31 34  1  0  0  0
 32 33  1  0  0  0
 21 22  1  0  0  0
 24 27  1  0  0  0
 25 28  1  0  0  0
M  END
> <minimizedAffinity>
-9.63025

$$$$
CHEMBL4468002


 34 38  0  0  0  0  0  0  0  0999 V2000
   13.9928   13.1256    3.3908 C   0  0  0  0  0  0  0  0  0  0  0  0
   14.9484   13.3984    4.3911 C   0  0  0  0  0  0  0  0  0  0  0  0
   15.6939   14.5875    4.3873 C   0  0  0  0  0  0  0  0  0  0  0  0
   15.4961   15.4932    3.3443 C   0  0  0  0  0  0  0  0  0  0  0  0
   14.5639   15.2330    2.3393 C   0  0  0  0  0  0  0  0  0  0  0  0
   13.8156   14.0603    2.3629 C   0  0  0  0  0  0  0  0  0  0  0  0
   12.8477    9.8384    1.9120 C   0  0  0  0  0  0  0  0  0  0  0  0
   12.8144   11.3626    1.9859 C   0  0  0  0  0  0  0  0  0  0  0  0
   13.1312   11.8680    3.4082 C   0  0  0  0  0  0  0  0  0  0  0  0
   13.7025   10.7613    4.3274 C   0  0  0  0  0  0  0  0  0  0  0  0
   14.2243    9.3242    2.3384 C   0  0  0  0  0  0  0  0  0  0  0  0
   14.6504    9.9066    3.6034 N   0  0  0  0  0  0  0  0  0  0  0  0
   15.9027    9.6786    4.1538 C   0  0  0  0  0  0  0  0  0  0  0  0
   17.9626   10.6005    4.8262 C   0  0  0  0  0  0  0  0  0  0  0  0
   17.7722    8.4065    4.9454 C   0  0  0  0  0  0  0  0  0  0  0  0
   16.4602    8.4144    4.4832 C   0  0  0  0  0  0  0  0  0  0  0  0
   16.0595    7.0410    4.4647 C   0  0  0  0  0  0  0  0  0  0  0  0
   17.1203    6.2678    4.8879 C   0  0  0  0  0  0  0  0  0  0  0  0
   16.7121   10.7583    4.3611 N   0  0  0  0  0  0  0  0  0  0  0  0
   18.5803    9.4563    5.1358 N   0  0  0  0  0  0  0  0  0  0  0  0
   18.1520    7.1151    5.1829 N   0  0  0  0  0  0  0  0  0  0  0  0
   19.0665    6.8566    5.5241 H   0  0  0  0  0  0  0  0  0  0  0  0
   17.9401   14.3770    5.4739 C   0  0  0  0  0  0  0  0  0  0  0  0
   16.6183   14.7972    5.4409 N   0  0  0  0  0  0  0  0  0  0  0  0
   18.5216   14.6087    6.7111 N   0  0  0  0  0  0  0  0  0  0  0  0
   18.5274   13.8577    4.5297 O   0  0  0  0  0  0  0  0  0  0  0  0
   16.2873   15.3603    6.2089 H   0  0  0  0  0  0  0  0  0  0  0  0
   17.9810   15.1338    7.3810 H   0  0  0  0  0  0  0  0  0  0  0  0
   19.8176   14.2057    7.1192 C   0  0  0  0  0  0  0  0  0  0  0  0
   20.0324   12.8767    7.4841 C   0  0  0  0  0  0  0  0  0  0  0  0
   22.2638   13.2215    7.9273 C   0  0  0  0  0  0  0  0  0  0  0  0
   22.1665   14.5563    7.5796 C   0  0  0  0  0  0  0  0  0  0  0  0
   20.9270   15.0488    7.1696 C   0  0  0  0  0  0  0  0  0  0  0  0
   21.2228   12.3640    7.8870 N   0  0  0  0  0  0  0  0  0  0  0  0
  7  8  1  0  0  0
  8  9  1  0  0  0
  9 10  1  0  0  0
  9  1  1  0  0  0
 10 12  1  0  0  0
 11 12  1  0  0  0
 11  7  1  0  0  0
 14 19  2  0  0  0
 15 20  2  0  0  0
 16 17  1  0  0  0
 16 13  2  0  0  0
 18 21  1  0  0  0
  2  3  2  0  0  0
  3 24  1  0  0  0
  4  5  2  0  0  0
  6  1  2  0  0  0
 23 25  1  0  0  0
 30 34  2  0  0  0
 31 32  2  0  0  0
 33 29  2  0  0  0
 12 13  1  0  0  0
 21 15  1  0  0  0
 24 23  1  0  0  0
 25 29  1  0  0  0
 13 19  1  0  0  0
 14 20  1  0  0  0
 15 16  1  0  0  0
 17 18  2  0  0  0
  1  2  1  0  0  0
  3  4  1  0  0  0
  5  6  1  0  0  0
 23 26  2  0  0  0
 29 30  1  0  0  0
 31 34  1  0  0  0
 32 33  1  0  0  0
 21 22  1  0  0  0
 24 27  1  0  0  0
 25 28  1  0  0  0
M  END
> <minimizedAffinity>
-8.82462

$$$$
CHEMBL4468002


 34 38  0  0  0  0  0  0  0  0999 V2000
   15.6848   12.9564    3.3736 C   0  0  0  0  0  0  0  0  0  0  0  0
   17.0546   13.0565    3.6921 C   0  0  0  0  0  0  0  0  0  0  0  0
   17.7120   12.0544    4.4225 C   0  0  0  0  0  0  0  0  0  0  0  0
   16.9702   10.9579    4.8639 C   0  0  0  0  0  0  0  0  0  0  0  0
   15.6109   10.8495    4.5687 C   0  0  0  0  0  0  0  0  0  0  0  0
   14.9728   11.8388    3.8271 C   0  0  0  0  0  0  0  0  0  0  0  0
   12.8068   15.3239    2.7282 C   0  0  0  0  0  0  0  0  0  0  0  0
   13.4339   13.9325    2.7016 C   0  0  0  0  0  0  0  0  0  0  0  0
   14.9652   14.0044    2.5319 C   0  0  0  0  0  0  0  0  0  0  0  0
   15.5280   15.4313    2.7396 C   0  0  0  0  0  0  0  0  0  0  0  0
   13.4061   16.1458    3.8713 C   0  0  0  0  0  0  0  0  0  0  0  0
   14.8619   16.1071    3.8589 N   0  0  0  0  0  0  0  0  0  0  0  0
   15.6393   16.6891    4.8488 C   0  0  0  0  0  0  0  0  0  0  0  0
   17.0005   16.3583    6.7417 C   0  0  0  0  0  0  0  0  0  0  0  0
   16.5554   18.4476    6.1936 C   0  0  0  0  0  0  0  0  0  0  0  0
   15.7947   18.0806    5.0883 C   0  0  0  0  0  0  0  0  0  0  0  0
   15.3582   19.3125    4.5060 C   0  0  0  0  0  0  0  0  0  0  0  0
   15.8417   20.3549    5.2688 C   0  0  0  0  0  0  0  0  0  0  0  0
   16.2873   15.8596    5.7181 N   0  0  0  0  0  0  0  0  0  0  0  0
   17.1802   17.6434    7.0620 N   0  0  0  0  0  0  0  0  0  0  0  0
   16.5737   19.8112    6.2875 N   0  0  0  0  0  0  0  0  0  0  0  0
   17.0630   20.3136    7.0140 H   0  0  0  0  0  0  0  0  0  0  0  0
   19.6589   12.9315    5.7303 C   0  0  0  0  0  0  0  0  0  0  0  0
   19.0956   12.2186    4.6820 N   0  0  0  0  0  0  0  0  0  0  0  0
   21.0369   13.0225    5.6073 N   0  0  0  0  0  0  0  0  0  0  0  0
   19.0214   13.4287    6.6537 O   0  0  0  0  0  0  0  0  0  0  0  0
   19.7191   11.7125    4.0723 H   0  0  0  0  0  0  0  0  0  0  0  0
   21.4676   12.4906    4.8668 H   0  0  0  0  0  0  0  0  0  0  0  0
   21.9078   13.7677    6.4410 C   0  0  0  0  0  0  0  0  0  0  0  0
   22.9520   14.4881    5.8613 C   0  0  0  0  0  0  0  0  0  0  0  0
   23.6985   15.2884    7.8852 C   0  0  0  0  0  0  0  0  0  0  0  0
   22.6950   14.6211    8.5632 C   0  0  0  0  0  0  0  0  0  0  0  0
   21.7905   13.8546    7.8276 C   0  0  0  0  0  0  0  0  0  0  0  0
   23.8489   15.2431    6.5451 N   0  0  0  0  0  0  0  0  0  0  0  0
  7  8  1  0  0  0
  8  9  1  0  0  0
  9 10  1  0  0  0
  9  1  1  0  0  0
 10 12  1  0  0  0
 11 12  1  0  0  0
 11  7  1  0  0  0
 14 19  2  0  0  0
 15 20  2  0  0  0
 16 17  1  0  0  0
 16 13  2  0  0  0
 18 21  1  0  0  0
  2  3  2  0  0  0
  3 24  1  0  0  0
  4  5  2  0  0  0
  6  1  2  0  0  0
 23 25  1  0  0  0
 30 34  2  0  0  0
 31 32  2  0  0  0
 33 29  2  0  0  0
 12 13  1  0  0  0
 21 15  1  0  0  0
 24 23  1  0  0  0
 25 29  1  0  0  0
 13 19  1  0  0  0
 14 20  1  0  0  0
 15 16  1  0  0  0
 17 18  2  0  0  0
  1  2  1  0  0  0
  3  4  1  0  0  0
  5  6  1  0  0  0
 23 26  2  0  0  0
 29 30  1  0  0  0
 31 34  1  0  0  0
 32 33  1  0  0  0
 21 22  1  0  0  0
 24 27  1  0  0  0
 25 28  1  0  0  0
M  END
> <minimizedAffinity>
-8.78068

$$$$
CHEMBL4468002


 34 38  0  0  0  0  0  0  0  0999 V2000
   18.6408   15.1487    6.3022 C   0  0  0  0  0  0  0  0  0  0  0  0
   18.6172   13.7609    6.5501 C   0  0  0  0  0  0  0  0  0  0  0  0
   19.6834   12.9307    6.1709 C   0  0  0  0  0  0  0  0  0  0  0  0
   20.7678   13.5032    5.5048 C   0  0  0  0  0  0  0  0  0  0  0  0
   20.8014   14.8727    5.2399 C   0  0  0  0  0  0  0  0  0  0  0  0
   19.7482   15.6904    5.6375 C   0  0  0  0  0  0  0  0  0  0  0  0
   16.6670   18.3668    6.0743 C   0  0  0  0  0  0  0  0  0  0  0  0
   17.8760   17.5626    6.5448 C   0  0  0  0  0  0  0  0  0  0  0  0
   17.5204   16.0770    6.7575 C   0  0  0  0  0  0  0  0  0  0  0  0
   16.1443   15.6955    6.1600 C   0  0  0  0  0  0  0  0  0  0  0  0
   16.1265   17.7823    4.7676 C   0  0  0  0  0  0  0  0  0  0  0  0
   15.9323   16.3418    4.8598 N   0  0  0  0  0  0  0  0  0  0  0  0
   15.5466   15.5631    3.7791 C   0  0  0  0  0  0  0  0  0  0  0  0
   15.2319   15.4346    1.4489 C   0  0  0  0  0  0  0  0  0  0  0  0
   14.5959   13.6862    2.6331 C   0  0  0  0  0  0  0  0  0  0  0  0
   14.9966   14.2547    3.8378 C   0  0  0  0  0  0  0  0  0  0  0  0
   14.6883   13.2774    4.8362 C   0  0  0  0  0  0  0  0  0  0  0  0
   14.1103   12.1871    4.2203 C   0  0  0  0  0  0  0  0  0  0  0  0
   15.6528   16.1087    2.5323 N   0  0  0  0  0  0  0  0  0  0  0  0
   14.6790   14.2184    1.4079 N   0  0  0  0  0  0  0  0  0  0  0  0
   14.0679   12.4495    2.8792 N   0  0  0  0  0  0  0  0  0  0  0  0
   13.7067   11.8436    2.1568 H   0  0  0  0  0  0  0  0  0  0  0  0
   19.2015   10.5379    5.6121 C   0  0  0  0  0  0  0  0  0  0  0  0
   19.5934   11.5497    6.4765 N   0  0  0  0  0  0  0  0  0  0  0  0
   19.0743    9.3230    6.2680 N   0  0  0  0  0  0  0  0  0  0  0  0
   18.9863   10.6928    4.4138 O   0  0  0  0  0  0  0  0  0  0  0  0
   19.9053   11.2833    7.3975 H   0  0  0  0  0  0  0  0  0  0  0  0
   19.3750    9.2872    7.2299 H   0  0  0  0  0  0  0  0  0  0  0  0
   18.5899    8.1134    5.7103 C   0  0  0  0  0  0  0  0  0  0  0  0
   19.4836    7.0693    5.4722 C   0  0  0  0  0  0  0  0  0  0  0  0
   17.8454    5.6805    4.6466 C   0  0  0  0  0  0  0  0  0  0  0  0
   16.8732    6.6428    4.8488 C   0  0  0  0  0  0  0  0  0  0  0  0
   17.2549    7.8714    5.3890 C   0  0  0  0  0  0  0  0  0  0  0  0
   19.1477    5.8629    4.9490 N   0  0  0  0  0  0  0  0  0  0  0  0
  7  8  1  0  0  0
  8  9  1  0  0  0
  9 10  1  0  0  0
  9  1  1  0  0  0
 10 12  1  0  0  0
 11 12  1  0  0  0
 11  7  1  0  0  0
 14 19  2  0  0  0
 15 20  2  0  0  0
 16 17  1  0  0  0
 16 13  2  0  0  0
 18 21  1  0  0  0
  2  3  2  0  0  0
  3 24  1  0  0  0
  4  5  2  0  0  0
  6  1  2  0  0  0
 23 25  1  0  0  0
 30 34  2  0  0  0
 31 32  2  0  0  0
 33 29  2  0  0  0
 12 13  1  0  0  0
 21 15  1  0  0  0
 24 23  1  0  0  0
 25 29  1  0  0  0
 13 19  1  0  0  0
 14 20  1  0  0  0
 15 16  1  0  0  0
 17 18  2  0  0  0
  1  2  1  0  0  0
  3  4  1  0  0  0
  5  6  1  0  0  0
 23 26  2  0  0  0
 29 30  1  0  0  0
 31 34  1  0  0  0
 32 33  1  0  0  0
 21 22  1  0  0  0
 24 27  1  0  0  0
 25 28  1  0  0  0
M  END
> <minimizedAffinity>
-8.65856

$$$$
CHEMBL4468002


 34 38  0  0  0  0  0  0  0  0999 V2000
   14.5103   14.8377    3.7882 C   0  0  0  0  0  0  0  0  0  0  0  0
   15.1991   13.8464    4.5168 C   0  0  0  0  0  0  0  0  0  0  0  0
   14.9420   12.4808    4.3196 C   0  0  0  0  0  0  0  0  0  0  0  0
   13.9559   12.1153    3.4024 C   0  0  0  0  0  0  0  0  0  0  0  0
   13.2556   13.0838    2.6824 C   0  0  0  0  0  0  0  0  0  0  0  0
   13.5317   14.4344    2.8709 C   0  0  0  0  0  0  0  0  0  0  0  0
   14.8814   17.9720    5.8720 C   0  0  0  0  0  0  0  0  0  0  0  0
   14.0321   16.9559    5.1131 C   0  0  0  0  0  0  0  0  0  0  0  0
   14.8150   16.3233    3.9444 C   0  0  0  0  0  0  0  0  0  0  0  0
   16.3326   16.6220    4.0044 C   0  0  0  0  0  0  0  0  0  0  0  0
   16.1441   17.2980    6.4129 C   0  0  0  0  0  0  0  0  0  0  0  0
   16.8361   16.5393    5.3801 N   0  0  0  0  0  0  0  0  0  0  0  0
   17.9509   15.7565    5.6399 C   0  0  0  0  0  0  0  0  0  0  0  0
   19.2089   13.8539    5.0540 C   0  0  0  0  0  0  0  0  0  0  0  0
   19.8649   14.9638    6.8434 C   0  0  0  0  0  0  0  0  0  0  0  0
   18.8601   15.9178    6.7193 C   0  0  0  0  0  0  0  0  0  0  0  0
   19.0607   16.8199    7.8116 C   0  0  0  0  0  0  0  0  0  0  0  0
   20.1403   16.3827    8.5502 C   0  0  0  0  0  0  0  0  0  0  0  0
   18.1864   14.6928    4.8172 N   0  0  0  0  0  0  0  0  0  0  0  0
   20.0945   13.9079    6.0536 N   0  0  0  0  0  0  0  0  0  0  0  0
   20.6220   15.2563    7.9434 N   0  0  0  0  0  0  0  0  0  0  0  0
   21.4127   14.7024    8.2393 H   0  0  0  0  0  0  0  0  0  0  0  0
   16.7369   10.7592    4.6099 C   0  0  0  0  0  0  0  0  0  0  0  0
   15.6932   11.5460    5.0748 N   0  0  0  0  0  0  0  0  0  0  0  0
   17.1535    9.8431    5.5637 N   0  0  0  0  0  0  0  0  0  0  0  0
   17.2319   10.8527    3.4908 O   0  0  0  0  0  0  0  0  0  0  0  0
   15.4772   11.5026    6.0587 H   0  0  0  0  0  0  0  0  0  0  0  0
   16.7479    9.9219    6.4836 H   0  0  0  0  0  0  0  0  0  0  0  0
   18.1192    8.8217    5.3827 C   0  0  0  0  0  0  0  0  0  0  0  0
   19.4585    9.1744    5.2177 C   0  0  0  0  0  0  0  0  0  0  0  0
   20.1482    6.9872    5.0319 C   0  0  0  0  0  0  0  0  0  0  0  0
   18.8552    6.5249    5.1947 C   0  0  0  0  0  0  0  0  0  0  0  0
   17.8326    7.4572    5.3737 C   0  0  0  0  0  0  0  0  0  0  0  0
   20.4777    8.2957    5.0417 N   0  0  0  0  0  0  0  0  0  0  0  0
  7  8  1  0  0  0
  8  9  1  0  0  0
  9 10  1  0  0  0
  9  1  1  0  0  0
 10 12  1  0  0  0
 11 12  1  0  0  0
 11  7  1  0  0  0
 14 19  2  0  0  0
 15 20  2  0  0  0
 16 17  1  0  0  0
 16 13  2  0  0  0
 18 21  1  0  0  0
  2  3  2  0  0  0
  3 24  1  0  0  0
  4  5  2  0  0  0
  6  1  2  0  0  0
 23 25  1  0  0  0
 30 34  2  0  0  0
 31 32  2  0  0  0
 33 29  2  0  0  0
 12 13  1  0  0  0
 21 15  1  0  0  0
 24 23  1  0  0  0
 25 29  1  0  0  0
 13 19  1  0  0  0
 14 20  1  0  0  0
 15 16  1  0  0  0
 17 18  2  0  0  0
  1  2  1  0  0  0
  3  4  1  0  0  0
  5  6  1  0  0  0
 23 26  2  0  0  0
 29 30  1  0  0  0
 31 34  1  0  0  0
 32 33  1  0  0  0
 21 22  1  0  0  0
 24 27  1  0  0  0
 25 28  1  0  0  0
M  END
> <minimizedAffinity>
-8.60394

$$$$
CHEMBL4468002


 34 38  0  0  0  0  0  0  0  0999 V2000
   20.1112    6.4207    5.8336 C   0  0  0  0  0  0  0  0  0  0  0  0
   19.0137    6.6681    4.9837 C   0  0  0  0  0  0  0  0  0  0  0  0
   17.7137    6.2685    5.3307 C   0  0  0  0  0  0  0  0  0  0  0  0
   17.5270    5.5827    6.5316 C   0  0  0  0  0  0  0  0  0  0  0  0
   18.6040    5.3181    7.3782 C   0  0  0  0  0  0  0  0  0  0  0  0
   19.8859    5.7358    7.0343 C   0  0  0  0  0  0  0  0  0  0  0  0
   23.8745    6.1757    6.1191 C   0  0  0  0  0  0  0  0  0  0  0  0
   22.5124    6.6140    6.6505 C   0  0  0  0  0  0  0  0  0  0  0  0
   21.5211    6.8975    5.5034 C   0  0  0  0  0  0  0  0  0  0  0  0
   22.0233    6.3834    4.1325 C   0  0  0  0  0  0  0  0  0  0  0  0
   23.7206    4.9194    5.2592 C   0  0  0  0  0  0  0  0  0  0  0  0
   22.6708    5.0730    4.2615 N   0  0  0  0  0  0  0  0  0  0  0  0
   22.2688    4.0416    3.4261 C   0  0  0  0  0  0  0  0  0  0  0  0
   22.5161    2.9795    1.3390 C   0  0  0  0  0  0  0  0  0  0  0  0
   20.9214    2.2159    2.6573 C   0  0  0  0  0  0  0  0  0  0  0  0
   21.2157    3.1207    3.6721 C   0  0  0  0  0  0  0  0  0  0  0  0
   20.2821    2.8310    4.7169 C   0  0  0  0  0  0  0  0  0  0  0  0
   19.4647    1.8002    4.3028 C   0  0  0  0  0  0  0  0  0  0  0  0
   22.9030    3.9133    2.2241 N   0  0  0  0  0  0  0  0  0  0  0  0
   21.5245    2.0927    1.4688 N   0  0  0  0  0  0  0  0  0  0  0  0
   19.8718    1.4332    3.0503 N   0  0  0  0  0  0  0  0  0  0  0  0
   19.4767    0.7016    2.4775 H   0  0  0  0  0  0  0  0  0  0  0  0
   16.1236    7.8305    4.1898 C   0  0  0  0  0  0  0  0  0  0  0  0
   16.6609    6.5748    4.4328 N   0  0  0  0  0  0  0  0  0  0  0  0
   15.0059    7.7612    3.3722 N   0  0  0  0  0  0  0  0  0  0  0  0
   16.5734    8.8781    4.6441 O   0  0  0  0  0  0  0  0  0  0  0  0
   16.3193    5.8048    3.8788 H   0  0  0  0  0  0  0  0  0  0  0  0
   14.7849    6.8622    2.9725 H   0  0  0  0  0  0  0  0  0  0  0  0
   14.1569    8.8387    3.0162 C   0  0  0  0  0  0  0  0  0  0  0  0
   13.1634    8.6333    2.0590 C   0  0  0  0  0  0  0  0  0  0  0  0
   12.3978   10.7986    2.1979 C   0  0  0  0  0  0  0  0  0  0  0  0
   13.3393   11.1109    3.1614 C   0  0  0  0  0  0  0  0  0  0  0  0
   14.2257   10.1151    3.5732 C   0  0  0  0  0  0  0  0  0  0  0  0
   12.2852    9.5774    1.6353 N   0  0  0  0  0  0  0  0  0  0  0  0
  7  8  1  0  0  0
  8  9  1  0  0  0
  9 10  1  0  0  0
  9  1  1  0  0  0
 10 12  1  0  0  0
 11 12  1  0  0  0
 11  7  1  0  0  0
 14 19  2  0  0  0
 15 20  2  0  0  0
 16 17  1  0  0  0
 16 13  2  0  0  0
 18 21  1  0  0  0
  2  3  2  0  0  0
  3 24  1  0  0  0
  4  5  2  0  0  0
  6  1  2  0  0  0
 23 25  1  0  0  0
 30 34  2  0  0  0
 31 32  2  0  0  0
 33 29  2  0  0  0
 12 13  1  0  0  0
 21 15  1  0  0  0
 24 23  1  0  0  0
 25 29  1  0  0  0
 13 19  1  0  0  0
 14 20  1  0  0  0
 15 16  1  0  0  0
 17 18  2  0  0  0
  1  2  1  0  0  0
  3  4  1  0  0  0
  5  6  1  0  0  0
 23 26  2  0  0  0
 29 30  1  0  0  0
 31 34  1  0  0  0
 32 33  1  0  0  0
 21 22  1  0  0  0
 24 27  1  0  0  0
 25 28  1  0  0  0
M  END
> <minimizedAffinity>
-8.42372

$$$$
CHEMBL4468002


 34 38  0  0  0  0  0  0  0  0999 V2000
   18.1338   15.8025    6.1466 C   0  0  0  0  0  0  0  0  0  0  0  0
   17.2195   15.3189    5.1884 C   0  0  0  0  0  0  0  0  0  0  0  0
   15.8856   15.7549    5.1632 C   0  0  0  0  0  0  0  0  0  0  0  0
   15.4638   16.6619    6.1362 C   0  0  0  0  0  0  0  0  0  0  0  0
   16.3521   17.1406    7.0997 C   0  0  0  0  0  0  0  0  0  0  0  0
   17.6775   16.7172    7.1041 C   0  0  0  0  0  0  0  0  0  0  0  0
   21.0663   13.9258    7.6239 C   0  0  0  0  0  0  0  0  0  0  0  0
   20.1191   15.1221    7.5840 C   0  0  0  0  0  0  0  0  0  0  0  0
   19.6006   15.3869    6.1558 C   0  0  0  0  0  0  0  0  0  0  0  0
   19.9011   14.2231    5.1804 C   0  0  0  0  0  0  0  0  0  0  0  0
   20.3528   12.6764    7.1032 C   0  0  0  0  0  0  0  0  0  0  0  0
   19.6958   12.9220    5.8269 N   0  0  0  0  0  0  0  0  0  0  0  0
   18.8988   11.9785    5.1961 C   0  0  0  0  0  0  0  0  0  0  0  0
   17.2350   11.5585    3.5834 C   0  0  0  0  0  0  0  0  0  0  0  0
   17.8728    9.8466    4.8190 C   0  0  0  0  0  0  0  0  0  0  0  0
   18.8037   10.6003    5.5264 C   0  0  0  0  0  0  0  0  0  0  0  0
   19.4058    9.6863    6.4480 C   0  0  0  0  0  0  0  0  0  0  0  0
   18.8216    8.4478    6.2837 C   0  0  0  0  0  0  0  0  0  0  0  0
   18.0826   12.4069    4.1891 N   0  0  0  0  0  0  0  0  0  0  0  0
   17.0558   10.2596    3.8427 N   0  0  0  0  0  0  0  0  0  0  0  0
   17.8960    8.5613    5.2840 N   0  0  0  0  0  0  0  0  0  0  0  0
   17.3039    7.8272    4.9234 H   0  0  0  0  0  0  0  0  0  0  0  0
   14.4241   13.9930    4.1484 C   0  0  0  0  0  0  0  0  0  0  0  0
   15.0352   15.2384    4.1539 N   0  0  0  0  0  0  0  0  0  0  0  0
   13.7839   13.7406    2.9447 N   0  0  0  0  0  0  0  0  0  0  0  0
   14.4480   13.2036    5.0878 O   0  0  0  0  0  0  0  0  0  0  0  0
   14.8130   15.8716    3.4015 H   0  0  0  0  0  0  0  0  0  0  0  0
   13.7394   14.4984    2.2810 H   0  0  0  0  0  0  0  0  0  0  0  0
   13.1564   12.5280    2.5646 C   0  0  0  0  0  0  0  0  0  0  0  0
   12.0013   12.5762    1.7843 C   0  0  0  0  0  0  0  0  0  0  0  0
   11.7973   10.2856    1.7105 C   0  0  0  0  0  0  0  0  0  0  0  0
   12.9382   10.1204    2.4741 C   0  0  0  0  0  0  0  0  0  0  0  0
   13.6232   11.2582    2.9021 C   0  0  0  0  0  0  0  0  0  0  0  0
   11.3105   11.4915    1.3506 N   0  0  0  0  0  0  0  0  0  0  0  0
  7  8  1  0  0  0
  8  9  1  0  0  0
  9 10  1  0  0  0
  9  1  1  0  0  0
 10 12  1  0  0  0
 11 12  1  0  0  0
 11  7  1  0  0  0
 14 19  2  0  0  0
 15 20  2  0  0  0
 16 17  1  0  0  0
 16 13  2  0  0  0
 18 21  1  0  0  0
  2  3  2  0  0  0
  3 24  1  0  0  0
  4  5  2  0  0  0
  6  1  2  0  0  0
 23 25  1  0  0  0
 30 34  2  0  0  0
 31 32  2  0  0  0
 33 29  2  0  0  0
 12 13  1  0  0  0
 21 15  1  0  0  0
 24 23  1  0  0  0
 25 29  1  0  0  0
 13 19  1  0  0  0
 14 20  1  0  0  0
 15 16  1  0  0  0
 17 18  2  0  0  0
  1  2  1  0  0  0
  3  4  1  0  0  0
  5  6  1  0  0  0
 23 26  2  0  0  0
 29 30  1  0  0  0
 31 34  1  0  0  0
 32 33  1  0  0  0
 21 22  1  0  0  0
 24 27  1  0  0  0
 25 28  1  0  0  0
M  END
> <minimizedAffinity>
-8.37967

$$$$
CHEMBL4468002


 34 38  0  0  0  0  0  0  0  0999 V2000
   16.3889   17.8388    5.2331 C   0  0  0  0  0  0  0  0  0  0  0  0
   16.2338   16.4387    5.2952 C   0  0  0  0  0  0  0  0  0  0  0  0
   14.9644   15.8405    5.2712 C   0  0  0  0  0  0  0  0  0  0  0  0
   13.8408   16.6664    5.2184 C   0  0  0  0  0  0  0  0  0  0  0  0
   13.9759   18.0542    5.1696 C   0  0  0  0  0  0  0  0  0  0  0  0
   15.2395   18.6368    5.1739 C   0  0  0  0  0  0  0  0  0  0  0  0
   19.1386   19.9078    6.8022 C   0  0  0  0  0  0  0  0  0  0  0  0
   17.8062   19.7788    6.0688 C   0  0  0  0  0  0  0  0  0  0  0  0
   17.7593   18.5061    5.1988 C   0  0  0  0  0  0  0  0  0  0  0  0
   18.9140   17.5226    5.5074 C   0  0  0  0  0  0  0  0  0  0  0  0
   19.3703   18.6802    7.6857 C   0  0  0  0  0  0  0  0  0  0  0  0
   19.1697   17.4395    6.9499 N   0  0  0  0  0  0  0  0  0  0  0  0
   19.2217   16.1907    7.5506 C   0  0  0  0  0  0  0  0  0  0  0  0
   19.4038   14.9689    9.5554 C   0  0  0  0  0  0  0  0  0  0  0  0
   19.4078   13.8057    7.6817 C   0  0  0  0  0  0  0  0  0  0  0  0
   19.2704   14.9372    6.8842 C   0  0  0  0  0  0  0  0  0  0  0  0
   19.2382   14.4485    5.5399 C   0  0  0  0  0  0  0  0  0  0  0  0
   19.3717   13.0760    5.5678 C   0  0  0  0  0  0  0  0  0  0  0  0
   19.2818   16.1429    8.9136 N   0  0  0  0  0  0  0  0  0  0  0  0
   19.4853   13.7484    9.0166 N   0  0  0  0  0  0  0  0  0  0  0  0
   19.4669   12.7008    6.8790 N   0  0  0  0  0  0  0  0  0  0  0  0
   19.5677   11.7601    7.2317 H   0  0  0  0  0  0  0  0  0  0  0  0
   14.7077   13.5763    4.2332 C   0  0  0  0  0  0  0  0  0  0  0  0
   14.8941   14.4257    5.3141 N   0  0  0  0  0  0  0  0  0  0  0  0
   14.5325   12.2617    4.6376 N   0  0  0  0  0  0  0  0  0  0  0  0
   14.6926   13.9378    3.0605 O   0  0  0  0  0  0  0  0  0  0  0  0
   15.0574   14.0058    6.2161 H   0  0  0  0  0  0  0  0  0  0  0  0
   14.6660   12.0612    5.6168 H   0  0  0  0  0  0  0  0  0  0  0  0
   14.2128   11.1612    3.8036 C   0  0  0  0  0  0  0  0  0  0  0  0
   15.1186   10.1063    3.6938 C   0  0  0  0  0  0  0  0  0  0  0  0
   13.7722    8.9275    2.2475 C   0  0  0  0  0  0  0  0  0  0  0  0
   12.8005    9.9105    2.2893 C   0  0  0  0  0  0  0  0  0  0  0  0
   13.0276   11.0378    3.0796 C   0  0  0  0  0  0  0  0  0  0  0  0
   14.9306    8.9962    2.9359 N   0  0  0  0  0  0  0  0  0  0  0  0
  7  8  1  0  0  0
  8  9  1  0  0  0
  9 10  1  0  0  0
  9  1  1  0  0  0
 10 12  1  0  0  0
 11 12  1  0  0  0
 11  7  1  0  0  0
 14 19  2  0  0  0
 15 20  2  0  0  0
 16 17  1  0  0  0
 16 13  2  0  0  0
 18 21  1  0  0  0
  2  3  2  0  0  0
  3 24  1  0  0  0
  4  5  2  0  0  0
  6  1  2  0  0  0
 23 25  1  0  0  0
 30 34  2  0  0  0
 31 32  2  0  0  0
 33 29  2  0  0  0
 12 13  1  0  0  0
 21 15  1  0  0  0
 24 23  1  0  0  0
 25 29  1  0  0  0
 13 19  1  0  0  0
 14 20  1  0  0  0
 15 16  1  0  0  0
 17 18  2  0  0  0
  1  2  1  0  0  0
  3  4  1  0  0  0
  5  6  1  0  0  0
 23 26  2  0  0  0
 29 30  1  0  0  0
 31 34  1  0  0  0
 32 33  1  0  0  0
 21 22  1  0  0  0
 24 27  1  0  0  0
 25 28  1  0  0  0
M  END
> <minimizedAffinity>
-8.26825

$$$$
CHEMBL585734


 37 40  0  0  0  0  0  0  0  0999 V2000
   15.9412   16.9715    4.1382 C   0  0  0  0  0  0  0  0  0  0  0  0
   15.0362   17.9141    4.1140 N   0  0  0  0  0  0  0  0  0  0  0  0
   15.9183   13.5745    2.5769 C   0  0  0  0  0  0  0  0  0  0  0  0
   15.6707   15.0867    2.5711 C   0  0  0  0  0  0  0  0  0  0  0  0
   14.6350   14.9071    4.8669 C   0  0  0  0  0  0  0  0  0  0  0  0
   14.8293   15.3264    6.3374 C   0  0  0  0  0  0  0  0  0  0  0  0
   14.8919   13.3743    4.7915 C   0  0  0  0  0  0  0  0  0  0  0  0
   14.9518   12.8713    3.4181 N   0  0  0  0  0  0  0  0  0  0  0  0
   15.5013   15.6730    3.9268 N   0  0  0  0  0  0  0  0  0  0  0  0
   15.5525    9.5660    3.5199 C   0  0  0  0  0  0  0  0  0  0  0  0
   14.1784    9.7614    2.9863 C   0  0  0  0  0  0  0  0  0  0  0  0
   13.3129    8.7440    2.6216 C   0  0  0  0  0  0  0  0  0  0  0  0
   12.2825   10.6724    2.1469 C   0  0  0  0  0  0  0  0  0  0  0  0
   11.7358   12.7866    1.8048 C   0  0  0  0  0  0  0  0  0  0  0  0
   13.7847   12.3889    2.8523 C   0  0  0  0  0  0  0  0  0  0  0  0
   13.5012   11.0060    2.7221 C   0  0  0  0  0  0  0  0  0  0  0  0
   12.1756    9.3107    2.1141 N   0  0  0  0  0  0  0  0  0  0  0  0
   11.3472   11.5093    1.6784 N   0  0  0  0  0  0  0  0  0  0  0  0
   12.8728   13.2646    2.3502 N   0  0  0  0  0  0  0  0  0  0  0  0
   11.3783    8.8187    1.7381 H   0  0  0  0  0  0  0  0  0  0  0  0
   15.4234   19.1837    4.2551 C   0  0  0  0  0  0  0  0  0  0  0  0
   15.7998   20.2706    4.3887 N   0  0  0  0  0  0  0  0  0  0  0  0
   17.3011   17.1752    4.2786 N   0  0  0  0  0  0  0  0  0  0  0  0
   17.6939   17.9652    3.7765 H   0  0  0  0  0  0  0  0  0  0  0  0
   18.1951   16.6635    5.2446 C   0  0  0  0  0  0  0  0  0  0  0  0
   18.5770   17.3765    6.3829 C   0  0  0  0  0  0  0  0  0  0  0  0
   19.3532   16.7977    7.3846 C   0  0  0  0  0  0  0  0  0  0  0  0
   19.8040   15.4898    7.2464 C   0  0  0  0  0  0  0  0  0  0  0  0
   19.4950   14.7617    6.0926 C   0  0  0  0  0  0  0  0  0  0  0  0
   18.6757   15.3510    5.1091 C   0  0  0  0  0  0  0  0  0  0  0  0
   19.9896   13.3689    5.8590 C   0  0  0  0  0  0  0  0  0  0  0  0
   19.1919   12.3263    6.2928 N   0  0  0  0  0  0  0  0  0  0  0  0
   21.0769   13.1911    5.3186 O   0  0  0  0  0  0  0  0  0  0  0  0
   18.3425   12.5036    6.8035 H   0  0  0  0  0  0  0  0  0  0  0  0
   19.5957   10.9353    6.1451 C   0  0  0  0  0  0  0  0  0  0  0  0
   18.5248   10.1623    5.3785 C   0  0  0  0  0  0  0  0  0  0  0  0
   19.8409   10.2985    7.5115 C   0  0  0  0  0  0  0  0  0  0  0  0
 10 11  1  0  0  0
 12 17  1  0  0  0
 14 18  2  0  0  0
 15 19  2  0  0  0
 15  8  1  0  0  0
  3  8  1  0  0  0
  3  4  1  0  0  0
  4  9  1  0  0  0
  1 23  1  0  0  0
 26 27  2  0  0  0
 28 29  2  0  0  0
 29 31  1  0  0  0
 31 32  1  0  0  0
 35 32  1  0  0  0
 35 36  1  0  0  0
 35 37  1  0  0  0
 30 25  2  0  0  0
  5  9  1  0  0  0
  5  6  1  0  0  0
  5  7  1  0  0  0
  7  8  1  0  0  0
 16 11  1  0  0  0
 16 13  2  0  0  0
 17 13  1  0  0  0
  9  1  1  0  0  0
  2 21  1  0  0  0
 23 25  1  0  0  0
 11 12  2  0  0  0
 13 18  1  0  0  0
 14 19  1  0  0  0
 15 16  1  0  0  0
  1  2  2  0  0  0
 25 26  1  0  0  0
 27 28  1  0  0  0
 29 30  1  0  0  0
 31 33  2  0  0  0
 21 22  3  0  0  0
 17 20  1  0  0  0
 23 24  1  0  0  0
 32 34  1  0  0  0
M  END
> <minimizedAffinity>
-8.86768

$$$$
CHEMBL585734


 37 40  0  0  0  0  0  0  0  0999 V2000
   13.7300   13.3889    3.3808 C   0  0  0  0  0  0  0  0  0  0  0  0
   12.8956   13.5357    2.3856 N   0  0  0  0  0  0  0  0  0  0  0  0
   15.8891   15.5072    5.5784 C   0  0  0  0  0  0  0  0  0  0  0  0
   14.5523   14.8865    5.1592 C   0  0  0  0  0  0  0  0  0  0  0  0
   15.0533   15.4764    2.7558 C   0  0  0  0  0  0  0  0  0  0  0  0
   15.3423   14.8564    1.3743 C   0  0  0  0  0  0  0  0  0  0  0  0
   16.3814   16.1133    3.2571 C   0  0  0  0  0  0  0  0  0  0  0  0
   16.3137   16.5543    4.6513 N   0  0  0  0  0  0  0  0  0  0  0  0
   14.4954   14.4930    3.7266 N   0  0  0  0  0  0  0  0  0  0  0  0
   19.0193   17.6139    6.3404 C   0  0  0  0  0  0  0  0  0  0  0  0
   18.1074   18.7759    6.1689 C   0  0  0  0  0  0  0  0  0  0  0  0
   18.3607   20.0609    6.6182 C   0  0  0  0  0  0  0  0  0  0  0  0
   16.3141   20.0822    5.7146 C   0  0  0  0  0  0  0  0  0  0  0  0
   14.3675   19.5782    4.7964 C   0  0  0  0  0  0  0  0  0  0  0  0
   15.9533   17.8671    4.8998 C   0  0  0  0  0  0  0  0  0  0  0  0
   16.8071   18.7952    5.5473 C   0  0  0  0  0  0  0  0  0  0  0  0
   17.2676   20.8352    6.3394 N   0  0  0  0  0  0  0  0  0  0  0  0
   15.1106   20.5462    5.3526 N   0  0  0  0  0  0  0  0  0  0  0  0
   14.7093   18.2961    4.5552 N   0  0  0  0  0  0  0  0  0  0  0  0
   17.1478   21.8090    6.5769 H   0  0  0  0  0  0  0  0  0  0  0  0
   12.0984   12.5169    2.0567 C   0  0  0  0  0  0  0  0  0  0  0  0
   11.3953   11.6294    1.8142 N   0  0  0  0  0  0  0  0  0  0  0  0
   13.8512   12.2529    4.1588 N   0  0  0  0  0  0  0  0  0  0  0  0
   13.0038   11.9207    4.6084 H   0  0  0  0  0  0  0  0  0  0  0  0
   14.8828   11.2892    4.1939 C   0  0  0  0  0  0  0  0  0  0  0  0
   14.6962    9.9588    3.8128 C   0  0  0  0  0  0  0  0  0  0  0  0
   15.7603    9.0635    3.7300 C   0  0  0  0  0  0  0  0  0  0  0  0
   17.0435    9.4755    4.0716 C   0  0  0  0  0  0  0  0  0  0  0  0
   17.2629   10.7831    4.5174 C   0  0  0  0  0  0  0  0  0  0  0  0
   16.1805   11.6847    4.5563 C   0  0  0  0  0  0  0  0  0  0  0  0
   18.6090   11.2755    4.9473 C   0  0  0  0  0  0  0  0  0  0  0  0
   18.6612   12.4726    5.6369 N   0  0  0  0  0  0  0  0  0  0  0  0
   19.6129   10.6288    4.6650 O   0  0  0  0  0  0  0  0  0  0  0  0
   17.8294   13.0202    5.7849 H   0  0  0  0  0  0  0  0  0  0  0  0
   19.9224   13.0567    6.0703 C   0  0  0  0  0  0  0  0  0  0  0  0
   19.8330   13.4515    7.5428 C   0  0  0  0  0  0  0  0  0  0  0  0
   20.2769   14.2690    5.2114 C   0  0  0  0  0  0  0  0  0  0  0  0
 10 11  1  0  0  0
 12 17  1  0  0  0
 14 18  2  0  0  0
 15 19  2  0  0  0
 15  8  1  0  0  0
  3  8  1  0  0  0
  3  4  1  0  0  0
  4  9  1  0  0  0
  1 23  1  0  0  0
 26 27  2  0  0  0
 28 29  2  0  0  0
 29 31  1  0  0  0
 31 32  1  0  0  0
 35 32  1  0  0  0
 35 36  1  0  0  0
 35 37  1  0  0  0
 30 25  2  0  0  0
  5  9  1  0  0  0
  5  6  1  0  0  0
  5  7  1  0  0  0
  7  8  1  0  0  0
 16 11  1  0  0  0
 16 13  2  0  0  0
 17 13  1  0  0  0
  9  1  1  0  0  0
  2 21  1  0  0  0
 23 25  1  0  0  0
 11 12  2  0  0  0
 13 18  1  0  0  0
 14 19  1  0  0  0
 15 16  1  0  0  0
  1  2  2  0  0  0
 25 26  1  0  0  0
 27 28  1  0  0  0
 29 30  1  0  0  0
 31 33  2  0  0  0
 21 22  3  0  0  0
 17 20  1  0  0  0
 23 24  1  0  0  0
 32 34  1  0  0  0
M  END
> <minimizedAffinity>
-8.80611

$$$$
CHEMBL585734


 37 40  0  0  0  0  0  0  0  0999 V2000
   16.9120   15.8061    4.6675 C   0  0  0  0  0  0  0  0  0  0  0  0
   16.2608   16.9250    4.8467 N   0  0  0  0  0  0  0  0  0  0  0  0
   14.4204   13.1075    5.3658 C   0  0  0  0  0  0  0  0  0  0  0  0
   15.7782   13.7966    5.5381 C   0  0  0  0  0  0  0  0  0  0  0  0
   15.9097   14.1215    3.0376 C   0  0  0  0  0  0  0  0  0  0  0  0
   15.9255   15.2033    1.9395 C   0  0  0  0  0  0  0  0  0  0  0  0
   14.5415   13.3876    2.9358 C   0  0  0  0  0  0  0  0  0  0  0  0
   14.2974   12.4749    4.0539 N   0  0  0  0  0  0  0  0  0  0  0  0
   16.1550   14.6749    4.3993 N   0  0  0  0  0  0  0  0  0  0  0  0
   11.7629   11.3544    2.1522 C   0  0  0  0  0  0  0  0  0  0  0  0
   12.7265   10.2358    2.3293 C   0  0  0  0  0  0  0  0  0  0  0  0
   12.5897    8.9717    1.7809 C   0  0  0  0  0  0  0  0  0  0  0  0
   14.4419    8.9368    3.0355 C   0  0  0  0  0  0  0  0  0  0  0  0
   16.1043    9.3842    4.4219 C   0  0  0  0  0  0  0  0  0  0  0  0
   14.6671   11.1499    3.9025 C   0  0  0  0  0  0  0  0  0  0  0  0
   13.9421   10.2302    3.1038 C   0  0  0  0  0  0  0  0  0  0  0  0
   13.6307    8.1998    2.2197 N   0  0  0  0  0  0  0  0  0  0  0  0
   15.5235    8.4483    3.6569 N   0  0  0  0  0  0  0  0  0  0  0  0
   15.7479   10.6754    4.5786 N   0  0  0  0  0  0  0  0  0  0  0  0
   13.7812    7.2236    2.0112 H   0  0  0  0  0  0  0  0  0  0  0  0
   16.9525   18.0484    5.0499 C   0  0  0  0  0  0  0  0  0  0  0  0
   17.5856   19.0059    5.2019 N   0  0  0  0  0  0  0  0  0  0  0  0
   18.2882   15.6790    4.6470 N   0  0  0  0  0  0  0  0  0  0  0  0
   18.8064   16.4440    4.2265 H   0  0  0  0  0  0  0  0  0  0  0  0
   19.1256   14.8141    5.3852 C   0  0  0  0  0  0  0  0  0  0  0  0
   20.0282   15.2669    6.3497 C   0  0  0  0  0  0  0  0  0  0  0  0
   20.7441   14.3844    7.1558 C   0  0  0  0  0  0  0  0  0  0  0  0
   20.6008   13.0124    6.9825 C   0  0  0  0  0  0  0  0  0  0  0  0
   19.7530   12.5181    5.9857 C   0  0  0  0  0  0  0  0  0  0  0  0
   19.0076   13.4261    5.2074 C   0  0  0  0  0  0  0  0  0  0  0  0
   19.5915   11.0555    5.7140 C   0  0  0  0  0  0  0  0  0  0  0  0
   19.3298   10.2304    6.7920 N   0  0  0  0  0  0  0  0  0  0  0  0
   19.7133   10.6315    4.5689 O   0  0  0  0  0  0  0  0  0  0  0  0
   19.3137   10.5955    7.7301 H   0  0  0  0  0  0  0  0  0  0  0  0
   19.1892    8.7890    6.6416 C   0  0  0  0  0  0  0  0  0  0  0  0
   18.1510    8.2627    7.6302 C   0  0  0  0  0  0  0  0  0  0  0  0
   20.5319    8.0928    6.8538 C   0  0  0  0  0  0  0  0  0  0  0  0
 10 11  1  0  0  0
 12 17  1  0  0  0
 14 18  2  0  0  0
 15 19  2  0  0  0
 15  8  1  0  0  0
  3  8  1  0  0  0
  3  4  1  0  0  0
  4  9  1  0  0  0
  1 23  1  0  0  0
 26 27  2  0  0  0
 28 29  2  0  0  0
 29 31  1  0  0  0
 31 32  1  0  0  0
 35 32  1  0  0  0
 35 36  1  0  0  0
 35 37  1  0  0  0
 30 25  2  0  0  0
  5  9  1  0  0  0
  5  6  1  0  0  0
  5  7  1  0  0  0
  7  8  1  0  0  0
 16 11  1  0  0  0
 16 13  2  0  0  0
 17 13  1  0  0  0
  9  1  1  0  0  0
  2 21  1  0  0  0
 23 25  1  0  0  0
 11 12  2  0  0  0
 13 18  1  0  0  0
 14 19  1  0  0  0
 15 16  1  0  0  0
  1  2  2  0  0  0
 25 26  1  0  0  0
 27 28  1  0  0  0
 29 30  1  0  0  0
 31 33  2  0  0  0
 21 22  3  0  0  0
 17 20  1  0  0  0
 23 24  1  0  0  0
 32 34  1  0  0  0
M  END
> <minimizedAffinity>
-8.77335

$$$$
CHEMBL585734


 37 40  0  0  0  0  0  0  0  0999 V2000
   15.8856   17.2845    4.1602 C   0  0  0  0  0  0  0  0  0  0  0  0
   14.9333   18.1762    4.0824 N   0  0  0  0  0  0  0  0  0  0  0  0
   16.0311   13.8287    2.7410 C   0  0  0  0  0  0  0  0  0  0  0  0
   15.6996   15.3234    2.6767 C   0  0  0  0  0  0  0  0  0  0  0  0
   14.7062   15.1838    4.9938 C   0  0  0  0  0  0  0  0  0  0  0  0
   14.8965   15.6748    6.4426 C   0  0  0  0  0  0  0  0  0  0  0  0
   15.0470   13.6657    4.9778 C   0  0  0  0  0  0  0  0  0  0  0  0
   15.1166   13.1094    3.6256 N   0  0  0  0  0  0  0  0  0  0  0  0
   15.5159   15.9560    4.0095 N   0  0  0  0  0  0  0  0  0  0  0  0
   15.9440    9.8545    3.7569 C   0  0  0  0  0  0  0  0  0  0  0  0
   14.5462    9.9478    3.2582 C   0  0  0  0  0  0  0  0  0  0  0  0
   13.7430    8.8683    2.9314 C   0  0  0  0  0  0  0  0  0  0  0  0
   12.5712   10.7146    2.4582 C   0  0  0  0  0  0  0  0  0  0  0  0
   11.8727   12.7813    2.1017 C   0  0  0  0  0  0  0  0  0  0  0  0
   13.9706   12.5400    3.0985 C   0  0  0  0  0  0  0  0  0  0  0  0
   13.7789   11.1392    2.9953 C   0  0  0  0  0  0  0  0  0  0  0  0
   12.5567    9.3485    2.4472 N   0  0  0  0  0  0  0  0  0  0  0  0
   11.5690   11.4787    2.0037 N   0  0  0  0  0  0  0  0  0  0  0  0
   12.9883   13.3438    2.6093 N   0  0  0  0  0  0  0  0  0  0  0  0
   11.7853    8.7976    2.0999 H   0  0  0  0  0  0  0  0  0  0  0  0
   15.2525   19.4697    4.1639 C   0  0  0  0  0  0  0  0  0  0  0  0
   15.5720   20.5809    4.2274 N   0  0  0  0  0  0  0  0  0  0  0  0
   17.2315   17.5657    4.3012 N   0  0  0  0  0  0  0  0  0  0  0  0
   17.6289   18.2194    3.6339 H   0  0  0  0  0  0  0  0  0  0  0  0
   18.0894   17.3434    5.4007 C   0  0  0  0  0  0  0  0  0  0  0  0
   18.2892   18.2836    6.4137 C   0  0  0  0  0  0  0  0  0  0  0  0
   19.0348   17.9871    7.5527 C   0  0  0  0  0  0  0  0  0  0  0  0
   19.6384   16.7416    7.6836 C   0  0  0  0  0  0  0  0  0  0  0  0
   19.5137   15.7931    6.6630 C   0  0  0  0  0  0  0  0  0  0  0  0
   18.7228   16.0976    5.5372 C   0  0  0  0  0  0  0  0  0  0  0  0
   20.1784   14.4536    6.7187 C   0  0  0  0  0  0  0  0  0  0  0  0
   20.8556   14.1240    7.8781 N   0  0  0  0  0  0  0  0  0  0  0  0
   20.1246   13.7059    5.7472 O   0  0  0  0  0  0  0  0  0  0  0  0
   20.9497   14.7889    8.6282 H   0  0  0  0  0  0  0  0  0  0  0  0
   21.5647   12.8606    8.0225 C   0  0  0  0  0  0  0  0  0  0  0  0
   20.8981   12.0116    9.1028 C   0  0  0  0  0  0  0  0  0  0  0  0
   23.0335   13.1042    8.3631 C   0  0  0  0  0  0  0  0  0  0  0  0
 10 11  1  0  0  0
 12 17  1  0  0  0
 14 18  2  0  0  0
 15 19  2  0  0  0
 15  8  1  0  0  0
  3  8  1  0  0  0
  3  4  1  0  0  0
  4  9  1  0  0  0
  1 23  1  0  0  0
 26 27  2  0  0  0
 28 29  2  0  0  0
 29 31  1  0  0  0
 31 32  1  0  0  0
 35 32  1  0  0  0
 35 36  1  0  0  0
 35 37  1  0  0  0
 30 25  2  0  0  0
  5  9  1  0  0  0
  5  6  1  0  0  0
  5  7  1  0  0  0
  7  8  1  0  0  0
 16 11  1  0  0  0
 16 13  2  0  0  0
 17 13  1  0  0  0
  9  1  1  0  0  0
  2 21  1  0  0  0
 23 25  1  0  0  0
 11 12  2  0  0  0
 13 18  1  0  0  0
 14 19  1  0  0  0
 15 16  1  0  0  0
  1  2  2  0  0  0
 25 26  1  0  0  0
 27 28  1  0  0  0
 29 30  1  0  0  0
 31 33  2  0  0  0
 21 22  3  0  0  0
 17 20  1  0  0  0
 23 24  1  0  0  0
 32 34  1  0  0  0
M  END
> <minimizedAffinity>
-8.57458

$$$$
CHEMBL585734


 37 40  0  0  0  0  0  0  0  0999 V2000
   16.9850   15.8531    4.7078 C   0  0  0  0  0  0  0  0  0  0  0  0
   16.3012   16.9360    4.9679 N   0  0  0  0  0  0  0  0  0  0  0  0
   14.6585   13.0513    5.5538 C   0  0  0  0  0  0  0  0  0  0  0  0
   15.9945   13.7967    5.6414 C   0  0  0  0  0  0  0  0  0  0  0  0
   15.9515   14.1298    3.1389 C   0  0  0  0  0  0  0  0  0  0  0  0
   15.8514   15.2126    2.0462 C   0  0  0  0  0  0  0  0  0  0  0  0
   14.6115   13.3392    3.1221 C   0  0  0  0  0  0  0  0  0  0  0  0
   14.4781   12.4157    4.2501 N   0  0  0  0  0  0  0  0  0  0  0  0
   16.2604   14.6914    4.4842 N   0  0  0  0  0  0  0  0  0  0  0  0
   11.9459   11.2315    2.3842 C   0  0  0  0  0  0  0  0  0  0  0  0
   12.9532   10.1465    2.5236 C   0  0  0  0  0  0  0  0  0  0  0  0
   12.8507    8.8866    1.9584 C   0  0  0  0  0  0  0  0  0  0  0  0
   14.7295    8.9009    3.1732 C   0  0  0  0  0  0  0  0  0  0  0  0
   16.4038    9.3883    4.5316 C   0  0  0  0  0  0  0  0  0  0  0  0
   14.8924   11.1076    4.0701 C   0  0  0  0  0  0  0  0  0  0  0  0
   14.1845   10.1739    3.2723 C   0  0  0  0  0  0  0  0  0  0  0  0
   13.9284    8.1469    2.3631 N   0  0  0  0  0  0  0  0  0  0  0  0
   15.8412    8.4432    3.7642 N   0  0  0  0  0  0  0  0  0  0  0  0
   16.0041   10.6630    4.7160 N   0  0  0  0  0  0  0  0  0  0  0  0
   14.1098    7.1801    2.1361 H   0  0  0  0  0  0  0  0  0  0  0  0
   16.9554   18.0880    5.1323 C   0  0  0  0  0  0  0  0  0  0  0  0
   17.5469   19.0777    5.2388 N   0  0  0  0  0  0  0  0  0  0  0  0
   18.3581   15.7928    4.5620 N   0  0  0  0  0  0  0  0  0  0  0  0
   18.7667   16.4133    3.8701 H   0  0  0  0  0  0  0  0  0  0  0  0
   19.3336   15.2422    5.4220 C   0  0  0  0  0  0  0  0  0  0  0  0
   20.5084   14.6459    4.9591 C   0  0  0  0  0  0  0  0  0  0  0  0
   21.5133   14.2319    5.8307 C   0  0  0  0  0  0  0  0  0  0  0  0
   21.3431   14.3699    7.2036 C   0  0  0  0  0  0  0  0  0  0  0  0
   20.1547   14.9060    7.7107 C   0  0  0  0  0  0  0  0  0  0  0  0
   19.1669   15.3553    6.8117 C   0  0  0  0  0  0  0  0  0  0  0  0
   19.8876   15.0360    9.1773 C   0  0  0  0  0  0  0  0  0  0  0  0
   20.6869   14.3084   10.0394 N   0  0  0  0  0  0  0  0  0  0  0  0
   18.9722   15.7534    9.5686 O   0  0  0  0  0  0  0  0  0  0  0  0
   21.3783   13.6675    9.6859 H   0  0  0  0  0  0  0  0  0  0  0  0
   20.4889   14.3371   11.4815 C   0  0  0  0  0  0  0  0  0  0  0  0
   21.4996   15.2835   12.1257 C   0  0  0  0  0  0  0  0  0  0  0  0
   20.6187   12.9337   12.0701 C   0  0  0  0  0  0  0  0  0  0  0  0
 10 11  1  0  0  0
 12 17  1  0  0  0
 14 18  2  0  0  0
 15 19  2  0  0  0
 15  8  1  0  0  0
  3  8  1  0  0  0
  3  4  1  0  0  0
  4  9  1  0  0  0
  1 23  1  0  0  0
 26 27  2  0  0  0
 28 29  2  0  0  0
 29 31  1  0  0  0
 31 32  1  0  0  0
 35 32  1  0  0  0
 35 36  1  0  0  0
 35 37  1  0  0  0
 30 25  2  0  0  0
  5  9  1  0  0  0
  5  6  1  0  0  0
  5  7  1  0  0  0
  7  8  1  0  0  0
 16 11  1  0  0  0
 16 13  2  0  0  0
 17 13  1  0  0  0
  9  1  1  0  0  0
  2 21  1  0  0  0
 23 25  1  0  0  0
 11 12  2  0  0  0
 13 18  1  0  0  0
 14 19  1  0  0  0
 15 16  1  0  0  0
  1  2  2  0  0  0
 25 26  1  0  0  0
 27 28  1  0  0  0
 29 30  1  0  0  0
 31 33  2  0  0  0
 21 22  3  0  0  0
 17 20  1  0  0  0
 23 24  1  0  0  0
 32 34  1  0  0  0
M  END
> <minimizedAffinity>
-8.35000

$$$$
CHEMBL585734


 37 40  0  0  0  0  0  0  0  0999 V2000
   16.0398   17.2884    4.4138 C   0  0  0  0  0  0  0  0  0  0  0  0
   15.1544   18.2330    4.2356 N   0  0  0  0  0  0  0  0  0  0  0  0
   16.0749   13.8209    3.0162 C   0  0  0  0  0  0  0  0  0  0  0  0
   15.8312   15.3312    2.9281 C   0  0  0  0  0  0  0  0  0  0  0  0
   14.6994   15.2614    5.1841 C   0  0  0  0  0  0  0  0  0  0  0  0
   14.8326   15.7502    6.6400 C   0  0  0  0  0  0  0  0  0  0  0  0
   14.9558   13.7267    5.1926 C   0  0  0  0  0  0  0  0  0  0  0  0
   15.0723   13.1588    3.8485 N   0  0  0  0  0  0  0  0  0  0  0  0
   15.6062   15.9814    4.2461 N   0  0  0  0  0  0  0  0  0  0  0  0
   15.8302    9.8850    3.7846 C   0  0  0  0  0  0  0  0  0  0  0  0
   14.4477   10.0413    3.2597 C   0  0  0  0  0  0  0  0  0  0  0  0
   13.6314    9.0033    2.8431 C   0  0  0  0  0  0  0  0  0  0  0  0
   12.5096   10.9018    2.4647 C   0  0  0  0  0  0  0  0  0  0  0  0
   11.8622   13.0021    2.2287 C   0  0  0  0  0  0  0  0  0  0  0  0
   13.9288   12.6503    3.2576 C   0  0  0  0  0  0  0  0  0  0  0  0
   13.7115   11.2638    3.0576 C   0  0  0  0  0  0  0  0  0  0  0  0
   12.4678    9.5399    2.3633 N   0  0  0  0  0  0  0  0  0  0  0  0
   11.5349   11.7156    2.0377 N   0  0  0  0  0  0  0  0  0  0  0  0
   12.9757   13.5057    2.7990 N   0  0  0  0  0  0  0  0  0  0  0  0
   11.6945    9.0300    1.9619 H   0  0  0  0  0  0  0  0  0  0  0  0
   15.5422   19.5068    4.3302 C   0  0  0  0  0  0  0  0  0  0  0  0
   15.9205   20.5985    4.4056 N   0  0  0  0  0  0  0  0  0  0  0  0
   17.3813   17.4924    4.6770 N   0  0  0  0  0  0  0  0  0  0  0  0
   17.7308   18.4353    4.5378 H   0  0  0  0  0  0  0  0  0  0  0  0
   18.2903   16.6920    5.4032 C   0  0  0  0  0  0  0  0  0  0  0  0
   19.0945   15.7189    4.8062 C   0  0  0  0  0  0  0  0  0  0  0  0
   20.0762   15.0381    5.5229 C   0  0  0  0  0  0  0  0  0  0  0  0
   20.2472   15.2904    6.8794 C   0  0  0  0  0  0  0  0  0  0  0  0
   19.4207   16.2133    7.5289 C   0  0  0  0  0  0  0  0  0  0  0  0
   18.4603   16.9204    6.7783 C   0  0  0  0  0  0  0  0  0  0  0  0
   19.5190   16.4945    8.9953 C   0  0  0  0  0  0  0  0  0  0  0  0
   20.2842   17.5769    9.3885 N   0  0  0  0  0  0  0  0  0  0  0  0
   18.9473   15.7611    9.7960 O   0  0  0  0  0  0  0  0  0  0  0  0
   20.8056   18.1130    8.7145 H   0  0  0  0  0  0  0  0  0  0  0  0
   20.4727   17.9169   10.7916 C   0  0  0  0  0  0  0  0  0  0  0  0
   20.5393   19.4339   10.9538 C   0  0  0  0  0  0  0  0  0  0  0  0
   21.7410   17.2638   11.3373 C   0  0  0  0  0  0  0  0  0  0  0  0
 10 11  1  0  0  0
 12 17  1  0  0  0
 14 18  2  0  0  0
 15 19  2  0  0  0
 15  8  1  0  0  0
  3  8  1  0  0  0
  3  4  1  0  0  0
  4  9  1  0  0  0
  1 23  1  0  0  0
 26 27  2  0  0  0
 28 29  2  0  0  0
 29 31  1  0  0  0
 31 32  1  0  0  0
 35 32  1  0  0  0
 35 36  1  0  0  0
 35 37  1  0  0  0
 30 25  2  0  0  0
  5  9  1  0  0  0
  5  6  1  0  0  0
  5  7  1  0  0  0
  7  8  1  0  0  0
 16 11  1  0  0  0
 16 13  2  0  0  0
 17 13  1  0  0  0
  9  1  1  0  0  0
  2 21  1  0  0  0
 23 25  1  0  0  0
 11 12  2  0  0  0
 13 18  1  0  0  0
 14 19  1  0  0  0
 15 16  1  0  0  0
  1  2  2  0  0  0
 25 26  1  0  0  0
 27 28  1  0  0  0
 29 30  1  0  0  0
 31 33  2  0  0  0
 21 22  3  0  0  0
 17 20  1  0  0  0
 23 24  1  0  0  0
 32 34  1  0  0  0
M  END
> <minimizedAffinity>
-8.21134

$$$$
CHEMBL585734


 37 40  0  0  0  0  0  0  0  0999 V2000
   17.7524   12.0569    5.0007 C   0  0  0  0  0  0  0  0  0  0  0  0
   19.0028   11.7718    4.7491 N   0  0  0  0  0  0  0  0  0  0  0  0
   17.6920   15.7377    5.6535 C   0  0  0  0  0  0  0  0  0  0  0  0
   17.3629   14.2803    5.9938 C   0  0  0  0  0  0  0  0  0  0  0  0
   16.6814   13.8932    3.5936 C   0  0  0  0  0  0  0  0  0  0  0  0
   17.0627   13.1133    2.3198 C   0  0  0  0  0  0  0  0  0  0  0  0
   17.0091   15.3908    3.3273 C   0  0  0  0  0  0  0  0  0  0  0  0
   16.8977   16.2227    4.5266 N   0  0  0  0  0  0  0  0  0  0  0  0
   17.3590   13.3742    4.8151 N   0  0  0  0  0  0  0  0  0  0  0  0
   17.9727   19.3059    5.3229 C   0  0  0  0  0  0  0  0  0  0  0  0
   16.4859   19.3286    5.3263 C   0  0  0  0  0  0  0  0  0  0  0  0
   15.7064   20.4412    5.5945 C   0  0  0  0  0  0  0  0  0  0  0  0
   14.3034   18.7249    5.2914 C   0  0  0  0  0  0  0  0  0  0  0  0
   13.3666   16.7465    4.9845 C   0  0  0  0  0  0  0  0  0  0  0  0
   15.6895   16.8523    4.7695 C   0  0  0  0  0  0  0  0  0  0  0  0
   15.5842   18.2297    5.0878 C   0  0  0  0  0  0  0  0  0  0  0  0
   14.3928   20.0589    5.5730 N   0  0  0  0  0  0  0  0  0  0  0  0
   13.1504   18.0446    5.2429 N   0  0  0  0  0  0  0  0  0  0  0  0
   14.5403   16.1246    4.7514 N   0  0  0  0  0  0  0  0  0  0  0  0
   13.5951   20.6475    5.7634 H   0  0  0  0  0  0  0  0  0  0  0  0
   19.4103   10.5054    4.8587 C   0  0  0  0  0  0  0  0  0  0  0  0
   19.7606    9.4029    4.9096 N   0  0  0  0  0  0  0  0  0  0  0  0
   16.7819   11.1400    5.3586 N   0  0  0  0  0  0  0  0  0  0  0  0
   16.3987   11.2298    6.2944 H   0  0  0  0  0  0  0  0  0  0  0  0
   16.0027   10.2873    4.5462 C   0  0  0  0  0  0  0  0  0  0  0  0
   16.2987    8.9360    4.3559 C   0  0  0  0  0  0  0  0  0  0  0  0
   15.4402    8.0883    3.6591 C   0  0  0  0  0  0  0  0  0  0  0  0
   14.2731    8.5912    3.0953 C   0  0  0  0  0  0  0  0  0  0  0  0
   13.9707    9.9521    3.2106 C   0  0  0  0  0  0  0  0  0  0  0  0
   14.8314   10.7852    3.9529 C   0  0  0  0  0  0  0  0  0  0  0  0
   12.7576   10.5663    2.5857 C   0  0  0  0  0  0  0  0  0  0  0  0
   12.6095   11.9370    2.6901 N   0  0  0  0  0  0  0  0  0  0  0  0
   11.9321    9.8512    2.0263 O   0  0  0  0  0  0  0  0  0  0  0  0
   13.2623   12.4880    3.2230 H   0  0  0  0  0  0  0  0  0  0  0  0
   11.4495   12.6293    2.1472 C   0  0  0  0  0  0  0  0  0  0  0  0
   11.4036   12.4550    0.6307 C   0  0  0  0  0  0  0  0  0  0  0  0
   11.4869   14.1112    2.5150 C   0  0  0  0  0  0  0  0  0  0  0  0
 10 11  1  0  0  0
 12 17  1  0  0  0
 14 18  2  0  0  0
 15 19  2  0  0  0
 15  8  1  0  0  0
  3  8  1  0  0  0
  3  4  1  0  0  0
  4  9  1  0  0  0
  1 23  1  0  0  0
 26 27  2  0  0  0
 28 29  2  0  0  0
 29 31  1  0  0  0
 31 32  1  0  0  0
 35 32  1  0  0  0
 35 36  1  0  0  0
 35 37  1  0  0  0
 30 25  2  0  0  0
  5  9  1  0  0  0
  5  6  1  0  0  0
  5  7  1  0  0  0
  7  8  1  0  0  0
 16 11  1  0  0  0
 16 13  2  0  0  0
 17 13  1  0  0  0
  9  1  1  0  0  0
  2 21  1  0  0  0
 23 25  1  0  0  0
 11 12  2  0  0  0
 13 18  1  0  0  0
 14 19  1  0  0  0
 15 16  1  0  0  0
  1  2  2  0  0  0
 25 26  1  0  0  0
 27 28  1  0  0  0
 29 30  1  0  0  0
 31 33  2  0  0  0
 21 22  3  0  0  0
 17 20  1  0  0  0
 23 24  1  0  0  0
 32 34  1  0  0  0
M  END
> <minimizedAffinity>
-8.19419

$$$$
CHEMBL585734


 37 40  0  0  0  0  0  0  0  0999 V2000
   14.5032   12.4691    3.3934 C   0  0  0  0  0  0  0  0  0  0  0  0
   13.2261   12.2666    3.2036 N   0  0  0  0  0  0  0  0  0  0  0  0
   15.7227   15.0445    5.8137 C   0  0  0  0  0  0  0  0  0  0  0  0
   14.6703   14.0843    5.2493 C   0  0  0  0  0  0  0  0  0  0  0  0
   15.2385   14.8629    2.9156 C   0  0  0  0  0  0  0  0  0  0  0  0
   15.8383   14.3912    1.5761 C   0  0  0  0  0  0  0  0  0  0  0  0
   16.2692   15.8338    3.5606 C   0  0  0  0  0  0  0  0  0  0  0  0
   15.9296   16.1960    4.9377 N   0  0  0  0  0  0  0  0  0  0  0  0
   14.8818   13.7336    3.8201 N   0  0  0  0  0  0  0  0  0  0  0  0
   18.3937   18.4624    5.2346 C   0  0  0  0  0  0  0  0  0  0  0  0
   17.0981   19.1891    5.3015 C   0  0  0  0  0  0  0  0  0  0  0  0
   16.9593   20.5595    5.4421 C   0  0  0  0  0  0  0  0  0  0  0  0
   14.8957   19.6951    5.4514 C   0  0  0  0  0  0  0  0  0  0  0  0
   13.1194   18.3796    5.4737 C   0  0  0  0  0  0  0  0  0  0  0  0
   15.1868   17.3457    5.1418 C   0  0  0  0  0  0  0  0  0  0  0  0
   15.7691   18.6324    5.2637 C   0  0  0  0  0  0  0  0  0  0  0  0
   15.6249   20.8475    5.5345 N   0  0  0  0  0  0  0  0  0  0  0  0
   13.5609   19.6435    5.5527 N   0  0  0  0  0  0  0  0  0  0  0  0
   13.8366   17.2541    5.2798 N   0  0  0  0  0  0  0  0  0  0  0  0
   15.2181   21.7608    5.6742 H   0  0  0  0  0  0  0  0  0  0  0  0
   12.8120   11.0482    2.8488 C   0  0  0  0  0  0  0  0  0  0  0  0
   12.4950    9.9803    2.5325 N   0  0  0  0  0  0  0  0  0  0  0  0
   15.4888   11.5070    3.2785 N   0  0  0  0  0  0  0  0  0  0  0  0
   15.5491   11.0262    2.3864 H   0  0  0  0  0  0  0  0  0  0  0  0
   16.6316   11.2859    4.0781 C   0  0  0  0  0  0  0  0  0  0  0  0
   16.9706   10.0331    4.5933 C   0  0  0  0  0  0  0  0  0  0  0  0
   18.1717    9.8171    5.2654 C   0  0  0  0  0  0  0  0  0  0  0  0
   19.0507   10.8736    5.4751 C   0  0  0  0  0  0  0  0  0  0  0  0
   18.7202   12.1575    5.0287 C   0  0  0  0  0  0  0  0  0  0  0  0
   17.5193   12.3476    4.3163 C   0  0  0  0  0  0  0  0  0  0  0  0
   19.5977   13.3463    5.2653 C   0  0  0  0  0  0  0  0  0  0  0  0
   20.9022   13.1098    5.6574 N   0  0  0  0  0  0  0  0  0  0  0  0
   19.1413   14.4772    5.1286 O   0  0  0  0  0  0  0  0  0  0  0  0
   21.2257   12.1737    5.8381 H   0  0  0  0  0  0  0  0  0  0  0  0
   21.8279   14.1959    5.9461 C   0  0  0  0  0  0  0  0  0  0  0  0
   22.7397   14.4342    4.7445 C   0  0  0  0  0  0  0  0  0  0  0  0
   22.6544   13.8812    7.1914 C   0  0  0  0  0  0  0  0  0  0  0  0
 10 11  1  0  0  0
 12 17  1  0  0  0
 14 18  2  0  0  0
 15 19  2  0  0  0
 15  8  1  0  0  0
  3  8  1  0  0  0
  3  4  1  0  0  0
  4  9  1  0  0  0
  1 23  1  0  0  0
 26 27  2  0  0  0
 28 29  2  0  0  0
 29 31  1  0  0  0
 31 32  1  0  0  0
 35 32  1  0  0  0
 35 36  1  0  0  0
 35 37  1  0  0  0
 30 25  2  0  0  0
  5  9  1  0  0  0
  5  6  1  0  0  0
  5  7  1  0  0  0
  7  8  1  0  0  0
 16 11  1  0  0  0
 16 13  2  0  0  0
 17 13  1  0  0  0
  9  1  1  0  0  0
  2 21  1  0  0  0
 23 25  1  0  0  0
 11 12  2  0  0  0
 13 18  1  0  0  0
 14 19  1  0  0  0
 15 16  1  0  0  0
  1  2  2  0  0  0
 25 26  1  0  0  0
 27 28  1  0  0  0
 29 30  1  0  0  0
 31 33  2  0  0  0
 21 22  3  0  0  0
 17 20  1  0  0  0
 23 24  1  0  0  0
 32 34  1  0  0  0
M  END
> <minimizedAffinity>
-8.15509

$$$$
CHEMBL585734


 37 40  0  0  0  0  0  0  0  0999 V2000
   16.7990   16.4808    4.6913 C   0  0  0  0  0  0  0  0  0  0  0  0
   16.0655   17.5623    4.7112 N   0  0  0  0  0  0  0  0  0  0  0  0
   16.3484   12.9611    3.5137 C   0  0  0  0  0  0  0  0  0  0  0  0
   16.4492   14.4750    3.2998 C   0  0  0  0  0  0  0  0  0  0  0  0
   14.9451   14.8383    5.2951 C   0  0  0  0  0  0  0  0  0  0  0  0
   14.9174   15.4231    6.7211 C   0  0  0  0  0  0  0  0  0  0  0  0
   14.8656   13.2907    5.4348 C   0  0  0  0  0  0  0  0  0  0  0  0
   15.0968   12.5897    4.1707 N   0  0  0  0  0  0  0  0  0  0  0  0
   16.1358   15.2755    4.5129 N   0  0  0  0  0  0  0  0  0  0  0  0
   15.5681    9.2818    3.8074 C   0  0  0  0  0  0  0  0  0  0  0  0
   14.2804    9.6316    3.1511 C   0  0  0  0  0  0  0  0  0  0  0  0
   13.4347    8.7316    2.5250 C   0  0  0  0  0  0  0  0  0  0  0  0
   12.5385   10.7629    2.2485 C   0  0  0  0  0  0  0  0  0  0  0  0
   12.1113   12.9309    2.1900 C   0  0  0  0  0  0  0  0  0  0  0  0
   13.9956   12.2650    3.3980 C   0  0  0  0  0  0  0  0  0  0  0  0
   13.6846   10.9367    3.0124 C   0  0  0  0  0  0  0  0  0  0  0  0
   12.3909    9.4309    1.9829 N   0  0  0  0  0  0  0  0  0  0  0  0
   11.6992   11.7117    1.8126 N   0  0  0  0  0  0  0  0  0  0  0  0
   13.1850   13.2561    2.9384 N   0  0  0  0  0  0  0  0  0  0  0  0
   11.6319    9.0472    1.4391 H   0  0  0  0  0  0  0  0  0  0  0  0
   16.6679   18.7482    4.8226 C   0  0  0  0  0  0  0  0  0  0  0  0
   17.2266   19.7596    4.8998 N   0  0  0  0  0  0  0  0  0  0  0  0
   18.1794   16.4522    4.7549 N   0  0  0  0  0  0  0  0  0  0  0  0
   18.6645   17.2771    4.4158 H   0  0  0  0  0  0  0  0  0  0  0  0
   19.0312   15.6030    5.4947 C   0  0  0  0  0  0  0  0  0  0  0  0
   20.0531   14.8517    4.9105 C   0  0  0  0  0  0  0  0  0  0  0  0
   20.9620   14.1274    5.6788 C   0  0  0  0  0  0  0  0  0  0  0  0
   20.8399   14.1061    7.0636 C   0  0  0  0  0  0  0  0  0  0  0  0
   19.7929   14.7955    7.6842 C   0  0  0  0  0  0  0  0  0  0  0  0
   18.9077   15.5544    6.8927 C   0  0  0  0  0  0  0  0  0  0  0  0
   19.5755   14.7730    9.1645 C   0  0  0  0  0  0  0  0  0  0  0  0
   20.0667   13.6876    9.8661 N   0  0  0  0  0  0  0  0  0  0  0  0
   18.9618   15.6884    9.7041 O   0  0  0  0  0  0  0  0  0  0  0  0
   20.4964   12.9138    9.3862 H   0  0  0  0  0  0  0  0  0  0  0  0
   19.8792   13.5516   11.3035 C   0  0  0  0  0  0  0  0  0  0  0  0
   21.1499   12.9958   11.9425 C   0  0  0  0  0  0  0  0  0  0  0  0
   18.6870   12.6464   11.6070 C   0  0  0  0  0  0  0  0  0  0  0  0
 10 11  1  0  0  0
 12 17  1  0  0  0
 14 18  2  0  0  0
 15 19  2  0  0  0
 15  8  1  0  0  0
  3  8  1  0  0  0
  3  4  1  0  0  0
  4  9  1  0  0  0
  1 23  1  0  0  0
 26 27  2  0  0  0
 28 29  2  0  0  0
 29 31  1  0  0  0
 31 32  1  0  0  0
 35 32  1  0  0  0
 35 36  1  0  0  0
 35 37  1  0  0  0
 30 25  2  0  0  0
  5  9  1  0  0  0
  5  6  1  0  0  0
  5  7  1  0  0  0
  7  8  1  0  0  0
 16 11  1  0  0  0
 16 13  2  0  0  0
 17 13  1  0  0  0
  9  1  1  0  0  0
  2 21  1  0  0  0
 23 25  1  0  0  0
 11 12  2  0  0  0
 13 18  1  0  0  0
 14 19  1  0  0  0
 15 16  1  0  0  0
  1  2  2  0  0  0
 25 26  1  0  0  0
 27 28  1  0  0  0
 29 30  1  0  0  0
 31 33  2  0  0  0
 21 22  3  0  0  0
 17 20  1  0  0  0
 23 24  1  0  0  0
 32 34  1  0  0  0
M  END
> <minimizedAffinity>
-8.13438

$$$$
CHEMBL3593766


 30 33  0  0  0  0  0  0  0  0999 V2000
   13.6028   11.2644    3.0147 C   0  0  0  0  0  0  0  0  0  0  0  0
   12.4790   11.2331    2.1216 C   0  0  0  0  0  0  0  0  0  0  0  0
   12.0970   10.0268    1.5330 C   0  0  0  0  0  0  0  0  0  0  0  0
   13.7195    8.8830    2.5587 C   0  0  0  0  0  0  0  0  0  0  0  0
   14.2325    9.9985    3.2235 C   0  0  0  0  0  0  0  0  0  0  0  0
   15.3341    9.4833    3.9763 C   0  0  0  0  0  0  0  0  0  0  0  0
   15.4499    8.1286    3.7528 C   0  0  0  0  0  0  0  0  0  0  0  0
   12.6770    8.8234    1.7184 N   0  0  0  0  0  0  0  0  0  0  0  0
   14.4568    7.7799    2.8889 N   0  0  0  0  0  0  0  0  0  0  0  0
   14.2688    6.8553    2.5324 H   0  0  0  0  0  0  0  0  0  0  0  0
   11.7064   12.4821    1.8084 C   0  0  0  0  0  0  0  0  0  0  0  0
   11.1768   12.6640    0.5568 N   0  0  0  0  0  0  0  0  0  0  0  0
   11.5224   13.3672    2.6418 O   0  0  0  0  0  0  0  0  0  0  0  0
   10.6670   13.5274    0.4130 H   0  0  0  0  0  0  0  0  0  0  0  0
   11.2247   12.0287   -0.2230 H   0  0  0  0  0  0  0  0  0  0  0  0
   13.9577   12.4738    3.6113 N   0  0  0  0  0  0  0  0  0  0  0  0
   13.1568   12.9974    3.9864 H   0  0  0  0  0  0  0  0  0  0  0  0
   15.2487   13.1121    3.8495 C   0  0  0  0  0  0  0  0  0  0  0  0
   15.7699   12.8637    5.2617 C   0  0  0  0  0  0  0  0  0  0  0  0
   16.9896   13.7195    5.6168 C   0  0  0  0  0  0  0  0  0  0  0  0
   17.1405   15.0301    4.8298 C   0  0  0  0  0  0  0  0  0  0  0  0
   15.2974   14.5783    3.3651 C   0  0  0  0  0  0  0  0  0  0  0  0
   15.8573   15.5318    4.3429 N   0  0  0  0  0  0  0  0  0  0  0  0
   15.9541   16.8848    3.7679 C   0  0  0  0  0  0  0  0  0  0  0  0
   15.0085   17.8779    4.4228 C   0  0  0  0  0  0  0  0  0  0  0  0
   15.2524   19.2566    4.3176 C   0  0  0  0  0  0  0  0  0  0  0  0
   14.3894   20.1851    4.9069 C   0  0  0  0  0  0  0  0  0  0  0  0
   13.2795   19.7498    5.6267 C   0  0  0  0  0  0  0  0  0  0  0  0
   13.0239   18.3871    5.7439 C   0  0  0  0  0  0  0  0  0  0  0  0
   13.8728   17.4603    5.1335 C   0  0  0  0  0  0  0  0  0  0  0  0
  1 16  1  0  0  0
  2  3  2  0  0  0
  2 11  1  0  0  0
  4  8  2  0  0  0
  5  6  1  0  0  0
  5  1  2  0  0  0
  7  9  1  0  0  0
 11 12  1  0  0  0
 18 16  1  0  0  0
 18 19  1  0  0  0
 19 20  1  0  0  0
 20 21  1  0  0  0
 21 23  1  0  0  0
 22 23  1  0  0  0
 22 18  1  0  0  0
 24 23  1  0  0  0
 24 25  1  0  0  0
 26 27  2  0  0  0
 28 29  2  0  0  0
 30 25  2  0  0  0
  9  4  1  0  0  0
  1  2  1  0  0  0
  3  8  1  0  0  0
  4  5  1  0  0  0
  6  7  2  0  0  0
 11 13  2  0  0  0
 25 26  1  0  0  0
 27 28  1  0  0  0
 29 30  1  0  0  0
  9 10  1  0  0  0
 12 14  1  0  0  0
 12 15  1  0  0  0
 16 17  1  0  0  0
M  END
> <minimizedAffinity>
-9.51163

$$$$
CHEMBL3593766


 30 33  0  0  0  0  0  0  0  0999 V2000
   13.6763   11.2631    3.0482 C   0  0  0  0  0  0  0  0  0  0  0  0
   14.4817   10.0846    3.2032 C   0  0  0  0  0  0  0  0  0  0  0  0
   14.1298    8.9133    2.5311 C   0  0  0  0  0  0  0  0  0  0  0  0
   12.3480    9.8640    1.5748 C   0  0  0  0  0  0  0  0  0  0  0  0
   12.5558   11.1075    2.1749 C   0  0  0  0  0  0  0  0  0  0  0  0
   11.4819   11.9168    1.6875 C   0  0  0  0  0  0  0  0  0  0  0  0
   10.6897   11.1695    0.8435 C   0  0  0  0  0  0  0  0  0  0  0  0
   13.0784    8.7475    1.7028 N   0  0  0  0  0  0  0  0  0  0  0  0
   11.2336    9.9225    0.7848 N   0  0  0  0  0  0  0  0  0  0  0  0
   10.8892    9.1424    0.2462 H   0  0  0  0  0  0  0  0  0  0  0  0
   15.6999   10.0916    4.0813 C   0  0  0  0  0  0  0  0  0  0  0  0
   16.0554    8.9595    4.7683 N   0  0  0  0  0  0  0  0  0  0  0  0
   16.4085   11.0876    4.2137 O   0  0  0  0  0  0  0  0  0  0  0  0
   16.8874    9.0324    5.3413 H   0  0  0  0  0  0  0  0  0  0  0  0
   15.5920    8.0657    4.7508 H   0  0  0  0  0  0  0  0  0  0  0  0
   14.0544   12.4311    3.7096 N   0  0  0  0  0  0  0  0  0  0  0  0
   14.2938   12.2843    4.6982 H   0  0  0  0  0  0  0  0  0  0  0  0
   14.2237   13.8081    3.2557 C   0  0  0  0  0  0  0  0  0  0  0  0
   14.9483   13.8952    1.9160 C   0  0  0  0  0  0  0  0  0  0  0  0
   15.3575   15.3226    1.5399 C   0  0  0  0  0  0  0  0  0  0  0  0
   15.5322   16.3002    2.7118 C   0  0  0  0  0  0  0  0  0  0  0  0
   14.7459   14.7504    4.3630 C   0  0  0  0  0  0  0  0  0  0  0  0
   15.8719   15.6139    3.9564 N   0  0  0  0  0  0  0  0  0  0  0  0
   16.2442   16.5430    5.0375 C   0  0  0  0  0  0  0  0  0  0  0  0
   15.0420   17.1840    5.7106 C   0  0  0  0  0  0  0  0  0  0  0  0
   14.6335   16.7513    6.9823 C   0  0  0  0  0  0  0  0  0  0  0  0
   13.5346   17.3343    7.6201 C   0  0  0  0  0  0  0  0  0  0  0  0
   12.8152   18.3460    6.9890 C   0  0  0  0  0  0  0  0  0  0  0  0
   13.2039   18.7854    5.7273 C   0  0  0  0  0  0  0  0  0  0  0  0
   14.3174   18.2196    5.1010 C   0  0  0  0  0  0  0  0  0  0  0  0
  1 16  1  0  0  0
  2  3  2  0  0  0
  2 11  1  0  0  0
  4  8  2  0  0  0
  5  6  1  0  0  0
  5  1  2  0  0  0
  7  9  1  0  0  0
 11 12  1  0  0  0
 18 16  1  0  0  0
 18 19  1  0  0  0
 19 20  1  0  0  0
 20 21  1  0  0  0
 21 23  1  0  0  0
 22 23  1  0  0  0
 22 18  1  0  0  0
 24 23  1  0  0  0
 24 25  1  0  0  0
 26 27  2  0  0  0
 28 29  2  0  0  0
 30 25  2  0  0  0
  9  4  1  0  0  0
  1  2  1  0  0  0
  3  8  1  0  0  0
  4  5  1  0  0  0
  6  7  2  0  0  0
 11 13  2  0  0  0
 25 26  1  0  0  0
 27 28  1  0  0  0
 29 30  1  0  0  0
  9 10  1  0  0  0
 12 14  1  0  0  0
 12 15  1  0  0  0
 16 17  1  0  0  0
M  END
> <minimizedAffinity>
-9.33770

$$$$
CHEMBL3593766


 30 33  0  0  0  0  0  0  0  0999 V2000
   16.0873   16.6352    6.2821 C   0  0  0  0  0  0  0  0  0  0  0  0
   15.3793   17.7596    5.7382 C   0  0  0  0  0  0  0  0  0  0  0  0
   15.8970   19.0457    5.8977 C   0  0  0  0  0  0  0  0  0  0  0  0
   17.6855   18.3084    7.0160 C   0  0  0  0  0  0  0  0  0  0  0  0
   17.3069   16.9662    6.9496 C   0  0  0  0  0  0  0  0  0  0  0  0
   18.3519   16.2718    7.6364 C   0  0  0  0  0  0  0  0  0  0  0  0
   19.2912   17.1772    8.0796 C   0  0  0  0  0  0  0  0  0  0  0  0
   17.0453   19.3776    6.5224 N   0  0  0  0  0  0  0  0  0  0  0  0
   18.8703   18.4124    7.6907 N   0  0  0  0  0  0  0  0  0  0  0  0
   19.3423   19.2877    7.8587 H   0  0  0  0  0  0  0  0  0  0  0  0
   14.0851   17.5736    4.9995 C   0  0  0  0  0  0  0  0  0  0  0  0
   12.9603   18.2419    5.4095 N   0  0  0  0  0  0  0  0  0  0  0  0
   13.9871   16.8341    4.0220 O   0  0  0  0  0  0  0  0  0  0  0  0
   12.1220   18.0720    4.8671 H   0  0  0  0  0  0  0  0  0  0  0  0
   12.8830   18.8918    6.1748 H   0  0  0  0  0  0  0  0  0  0  0  0
   15.5673   15.3549    6.0949 N   0  0  0  0  0  0  0  0  0  0  0  0
   14.5853   15.2641    6.3841 H   0  0  0  0  0  0  0  0  0  0  0  0
   16.1327   14.1373    5.5217 C   0  0  0  0  0  0  0  0  0  0  0  0
   16.9638   14.4127    4.2723 C   0  0  0  0  0  0  0  0  0  0  0  0
   17.3584   13.1414    3.5145 C   0  0  0  0  0  0  0  0  0  0  0  0
   16.4448   11.9247    3.7257 C   0  0  0  0  0  0  0  0  0  0  0  0
   15.1048   12.9900    5.4038 C   0  0  0  0  0  0  0  0  0  0  0  0
   15.0847   12.3134    4.0921 N   0  0  0  0  0  0  0  0  0  0  0  0
   14.1475   11.1766    4.0966 C   0  0  0  0  0  0  0  0  0  0  0  0
   13.1053   11.2613    2.9940 C   0  0  0  0  0  0  0  0  0  0  0  0
   12.7018   10.0998    2.3161 C   0  0  0  0  0  0  0  0  0  0  0  0
   11.7389   10.1572    1.3043 C   0  0  0  0  0  0  0  0  0  0  0  0
   11.1779   11.3789    0.9411 C   0  0  0  0  0  0  0  0  0  0  0  0
   11.5679   12.5407    1.6001 C   0  0  0  0  0  0  0  0  0  0  0  0
   12.5120   12.4792    2.6283 C   0  0  0  0  0  0  0  0  0  0  0  0
  1 16  1  0  0  0
  2  3  2  0  0  0
  2 11  1  0  0  0
  4  8  2  0  0  0
  5  6  1  0  0  0
  5  1  2  0  0  0
  7  9  1  0  0  0
 11 12  1  0  0  0
 18 16  1  0  0  0
 18 19  1  0  0  0
 19 20  1  0  0  0
 20 21  1  0  0  0
 21 23  1  0  0  0
 22 23  1  0  0  0
 22 18  1  0  0  0
 24 23  1  0  0  0
 24 25  1  0  0  0
 26 27  2  0  0  0
 28 29  2  0  0  0
 30 25  2  0  0  0
  9  4  1  0  0  0
  1  2  1  0  0  0
  3  8  1  0  0  0
  4  5  1  0  0  0
  6  7  2  0  0  0
 11 13  2  0  0  0
 25 26  1  0  0  0
 27 28  1  0  0  0
 29 30  1  0  0  0
  9 10  1  0  0  0
 12 14  1  0  0  0
 12 15  1  0  0  0
 16 17  1  0  0  0
M  END
> <minimizedAffinity>
-8.87078

$$$$
CHEMBL3593766


 30 33  0  0  0  0  0  0  0  0999 V2000
   13.5610   11.1111    3.1253 C   0  0  0  0  0  0  0  0  0  0  0  0
   14.3881    9.9376    3.1466 C   0  0  0  0  0  0  0  0  0  0  0  0
   14.0761    8.8567    2.3209 C   0  0  0  0  0  0  0  0  0  0  0  0
   12.2954    9.8898    1.4522 C   0  0  0  0  0  0  0  0  0  0  0  0
   12.4633   11.0489    2.2122 C   0  0  0  0  0  0  0  0  0  0  0  0
   11.3829   11.8944    1.8073 C   0  0  0  0  0  0  0  0  0  0  0  0
   10.6254   11.2478    0.8551 C   0  0  0  0  0  0  0  0  0  0  0  0
   13.0467    8.7798    1.4529 N   0  0  0  0  0  0  0  0  0  0  0  0
   11.1973   10.0292    0.6495 N   0  0  0  0  0  0  0  0  0  0  0  0
   10.8815    9.3189    0.0068 H   0  0  0  0  0  0  0  0  0  0  0  0
   15.5865    9.8537    4.0476 C   0  0  0  0  0  0  0  0  0  0  0  0
   15.9142    8.6625    4.6422 N   0  0  0  0  0  0  0  0  0  0  0  0
   16.3030   10.8255    4.2799 O   0  0  0  0  0  0  0  0  0  0  0  0
   16.7342    8.6752    5.2368 H   0  0  0  0  0  0  0  0  0  0  0  0
   15.4415    7.7795    4.5381 H   0  0  0  0  0  0  0  0  0  0  0  0
   13.8994   12.1907    3.9405 N   0  0  0  0  0  0  0  0  0  0  0  0
   13.9945   11.9419    4.9331 H   0  0  0  0  0  0  0  0  0  0  0  0
   14.1933   13.5903    3.6483 C   0  0  0  0  0  0  0  0  0  0  0  0
   14.4869   13.8278    2.1701 C   0  0  0  0  0  0  0  0  0  0  0  0
   15.0379   15.2271    1.8788 C   0  0  0  0  0  0  0  0  0  0  0  0
   15.7437   15.9264    3.0504 C   0  0  0  0  0  0  0  0  0  0  0  0
   15.1974   14.2179    4.6407 C   0  0  0  0  0  0  0  0  0  0  0  0
   16.2974   14.9726    4.0091 N   0  0  0  0  0  0  0  0  0  0  0  0
   17.1511   15.6139    5.0243 C   0  0  0  0  0  0  0  0  0  0  0  0
   18.4606   14.8770    5.2510 C   0  0  0  0  0  0  0  0  0  0  0  0
   19.6787   15.5732    5.1963 C   0  0  0  0  0  0  0  0  0  0  0  0
   20.8926   14.9136    5.4097 C   0  0  0  0  0  0  0  0  0  0  0  0
   20.9096   13.5442    5.6625 C   0  0  0  0  0  0  0  0  0  0  0  0
   19.7122   12.8376    5.7175 C   0  0  0  0  0  0  0  0  0  0  0  0
   18.4976   13.5020    5.5289 C   0  0  0  0  0  0  0  0  0  0  0  0
  1 16  1  0  0  0
  2  3  2  0  0  0
  2 11  1  0  0  0
  4  8  2  0  0  0
  5  6  1  0  0  0
  5  1  2  0  0  0
  7  9  1  0  0  0
 11 12  1  0  0  0
 18 16  1  0  0  0
 18 19  1  0  0  0
 19 20  1  0  0  0
 20 21  1  0  0  0
 21 23  1  0  0  0
 22 23  1  0  0  0
 22 18  1  0  0  0
 24 23  1  0  0  0
 24 25  1  0  0  0
 26 27  2  0  0  0
 28 29  2  0  0  0
 30 25  2  0  0  0
  9  4  1  0  0  0
  1  2  1  0  0  0
  3  8  1  0  0  0
  4  5  1  0  0  0
  6  7  2  0  0  0
 11 13  2  0  0  0
 25 26  1  0  0  0
 27 28  1  0  0  0
 29 30  1  0  0  0
  9 10  1  0  0  0
 12 14  1  0  0  0
 12 15  1  0  0  0
 16 17  1  0  0  0
M  END
> <minimizedAffinity>
-8.87008

$$$$
CHEMBL3593766


 30 33  0  0  0  0  0  0  0  0999 V2000
   16.4937   18.2883    5.6055 C   0  0  0  0  0  0  0  0  0  0  0  0
   16.2562   19.6882    5.3921 C   0  0  0  0  0  0  0  0  0  0  0  0
   17.0393   20.6318    6.0583 C   0  0  0  0  0  0  0  0  0  0  0  0
   18.2514   19.0634    7.0895 C   0  0  0  0  0  0  0  0  0  0  0  0
   17.5615   17.9970    6.5097 C   0  0  0  0  0  0  0  0  0  0  0  0
   18.1927   16.8335    7.0518 C   0  0  0  0  0  0  0  0  0  0  0  0
   19.2025   17.2153    7.9079 C   0  0  0  0  0  0  0  0  0  0  0  0
   18.0508   20.3768    6.9131 N   0  0  0  0  0  0  0  0  0  0  0  0
   19.2254   18.5768    7.9167 N   0  0  0  0  0  0  0  0  0  0  0  0
   19.8561   19.1630    8.4420 H   0  0  0  0  0  0  0  0  0  0  0  0
   15.1737   20.1548    4.4617 C   0  0  0  0  0  0  0  0  0  0  0  0
   15.4978   20.8720    3.3390 N   0  0  0  0  0  0  0  0  0  0  0  0
   13.9847   19.9166    4.6653 O   0  0  0  0  0  0  0  0  0  0  0  0
   14.7203   21.1550    2.7547 H   0  0  0  0  0  0  0  0  0  0  0  0
   16.4195   21.1303    3.0262 H   0  0  0  0  0  0  0  0  0  0  0  0
   15.7166   17.3587    4.9153 N   0  0  0  0  0  0  0  0  0  0  0  0
   14.7087   17.5558    4.9546 H   0  0  0  0  0  0  0  0  0  0  0  0
   16.0627   16.1926    4.1082 C   0  0  0  0  0  0  0  0  0  0  0  0
   15.5850   16.3202    2.6649 C   0  0  0  0  0  0  0  0  0  0  0  0
   15.7126   15.0190    1.8669 C   0  0  0  0  0  0  0  0  0  0  0  0
   15.7140   13.7239    2.6930 C   0  0  0  0  0  0  0  0  0  0  0  0
   15.7353   14.8542    4.8070 C   0  0  0  0  0  0  0  0  0  0  0  0
   15.0124   13.8807    3.9653 N   0  0  0  0  0  0  0  0  0  0  0  0
   14.8247   12.6033    4.6750 C   0  0  0  0  0  0  0  0  0  0  0  0
   14.1884   11.5297    3.8080 C   0  0  0  0  0  0  0  0  0  0  0  0
   14.7681   10.2533    3.7294 C   0  0  0  0  0  0  0  0  0  0  0  0
   14.1927    9.2509    2.9430 C   0  0  0  0  0  0  0  0  0  0  0  0
   13.0395    9.5140    2.2080 C   0  0  0  0  0  0  0  0  0  0  0  0
   12.4530   10.7742    2.2715 C   0  0  0  0  0  0  0  0  0  0  0  0
   13.0144   11.7681    3.0772 C   0  0  0  0  0  0  0  0  0  0  0  0
  1 16  1  0  0  0
  2  3  2  0  0  0
  2 11  1  0  0  0
  4  8  2  0  0  0
  5  6  1  0  0  0
  5  1  2  0  0  0
  7  9  1  0  0  0
 11 12  1  0  0  0
 18 16  1  0  0  0
 18 19  1  0  0  0
 19 20  1  0  0  0
 20 21  1  0  0  0
 21 23  1  0  0  0
 22 23  1  0  0  0
 22 18  1  0  0  0
 24 23  1  0  0  0
 24 25  1  0  0  0
 26 27  2  0  0  0
 28 29  2  0  0  0
 30 25  2  0  0  0
  9  4  1  0  0  0
  1  2  1  0  0  0
  3  8  1  0  0  0
  4  5  1  0  0  0
  6  7  2  0  0  0
 11 13  2  0  0  0
 25 26  1  0  0  0
 27 28  1  0  0  0
 29 30  1  0  0  0
  9 10  1  0  0  0
 12 14  1  0  0  0
 12 15  1  0  0  0
 16 17  1  0  0  0
M  END
> <minimizedAffinity>
-8.85401

$$$$
CHEMBL3593766


 30 33  0  0  0  0  0  0  0  0999 V2000
   13.6705   11.4025    3.3280 C   0  0  0  0  0  0  0  0  0  0  0  0
   12.8171   10.6334    2.4667 C   0  0  0  0  0  0  0  0  0  0  0  0
   13.1246    9.2982    2.2017 C   0  0  0  0  0  0  0  0  0  0  0  0
   14.9483    9.3452    3.4919 C   0  0  0  0  0  0  0  0  0  0  0  0
   14.7882   10.6840    3.8542 C   0  0  0  0  0  0  0  0  0  0  0  0
   15.8966   10.9493    4.7185 C   0  0  0  0  0  0  0  0  0  0  0  0
   16.6621    9.8108    4.8467 C   0  0  0  0  0  0  0  0  0  0  0  0
   14.1726    8.6032    2.6892 N   0  0  0  0  0  0  0  0  0  0  0  0
   16.0682    8.8433    4.0948 N   0  0  0  0  0  0  0  0  0  0  0  0
   16.3834    7.8916    3.9838 H   0  0  0  0  0  0  0  0  0  0  0  0
   11.5957   11.2452    1.8430 C   0  0  0  0  0  0  0  0  0  0  0  0
   11.0686   10.7062    0.6978 N   0  0  0  0  0  0  0  0  0  0  0  0
   11.0346   12.2278    2.3240 O   0  0  0  0  0  0  0  0  0  0  0  0
   10.2446   11.1666    0.3303 H   0  0  0  0  0  0  0  0  0  0  0  0
   11.3994    9.8978    0.1967 H   0  0  0  0  0  0  0  0  0  0  0  0
   13.3367   12.7289    3.5998 N   0  0  0  0  0  0  0  0  0  0  0  0
   12.5469   12.8289    4.2497 H   0  0  0  0  0  0  0  0  0  0  0  0
   13.9245   13.9974    3.1798 C   0  0  0  0  0  0  0  0  0  0  0  0
   14.4820   13.9399    1.7609 C   0  0  0  0  0  0  0  0  0  0  0  0
   15.3191   15.1675    1.3884 C   0  0  0  0  0  0  0  0  0  0  0  0
   15.9513   15.9288    2.5633 C   0  0  0  0  0  0  0  0  0  0  0  0
   14.8608   14.6123    4.2438 C   0  0  0  0  0  0  0  0  0  0  0  0
   16.1651   15.0697    3.7259 N   0  0  0  0  0  0  0  0  0  0  0  0
   16.9544   15.7254    4.7830 C   0  0  0  0  0  0  0  0  0  0  0  0
   18.2378   14.9821    5.1140 C   0  0  0  0  0  0  0  0  0  0  0  0
   18.2729   13.5795    5.0601 C   0  0  0  0  0  0  0  0  0  0  0  0
   19.4465   12.8791    5.3539 C   0  0  0  0  0  0  0  0  0  0  0  0
   20.5983   13.5684    5.7245 C   0  0  0  0  0  0  0  0  0  0  0  0
   20.5811   14.9584    5.7862 C   0  0  0  0  0  0  0  0  0  0  0  0
   19.4149   15.6591    5.4681 C   0  0  0  0  0  0  0  0  0  0  0  0
  1 16  1  0  0  0
  2  3  2  0  0  0
  2 11  1  0  0  0
  4  8  2  0  0  0
  5  6  1  0  0  0
  5  1  2  0  0  0
  7  9  1  0  0  0
 11 12  1  0  0  0
 18 16  1  0  0  0
 18 19  1  0  0  0
 19 20  1  0  0  0
 20 21  1  0  0  0
 21 23  1  0  0  0
 22 23  1  0  0  0
 22 18  1  0  0  0
 24 23  1  0  0  0
 24 25  1  0  0  0
 26 27  2  0  0  0
 28 29  2  0  0  0
 30 25  2  0  0  0
  9  4  1  0  0  0
  1  2  1  0  0  0
  3  8  1  0  0  0
  4  5  1  0  0  0
  6  7  2  0  0  0
 11 13  2  0  0  0
 25 26  1  0  0  0
 27 28  1  0  0  0
 29 30  1  0  0  0
  9 10  1  0  0  0
 12 14  1  0  0  0
 12 15  1  0  0  0
 16 17  1  0  0  0
M  END
> <minimizedAffinity>
-8.75363

$$$$
CHEMBL3593766


 30 33  0  0  0  0  0  0  0  0999 V2000
   16.3239   19.5286    5.9145 C   0  0  0  0  0  0  0  0  0  0  0  0
   14.9731   19.5264    5.4278 C   0  0  0  0  0  0  0  0  0  0  0  0
   14.5773   20.4735    4.4824 C   0  0  0  0  0  0  0  0  0  0  0  0
   16.6057   21.4075    4.4037 C   0  0  0  0  0  0  0  0  0  0  0  0
   17.1597   20.5387    5.3458 C   0  0  0  0  0  0  0  0  0  0  0  0
   18.5186   20.9691    5.4645 C   0  0  0  0  0  0  0  0  0  0  0  0
   18.7361   22.0409    4.6264 C   0  0  0  0  0  0  0  0  0  0  0  0
   15.3507   21.4324    3.9336 N   0  0  0  0  0  0  0  0  0  0  0  0
   17.5608   22.2925    3.9864 N   0  0  0  0  0  0  0  0  0  0  0  0
   17.3928   23.0138    3.3018 H   0  0  0  0  0  0  0  0  0  0  0  0
   13.9754   18.5191    5.9229 C   0  0  0  0  0  0  0  0  0  0  0  0
   13.1224   17.9090    5.0396 N   0  0  0  0  0  0  0  0  0  0  0  0
   13.8880   18.2095    7.1096 O   0  0  0  0  0  0  0  0  0  0  0  0
   12.4755   17.2398    5.4393 H   0  0  0  0  0  0  0  0  0  0  0  0
   13.0822   18.0406    4.0421 H   0  0  0  0  0  0  0  0  0  0  0  0
   16.7087   18.5616    6.8428 N   0  0  0  0  0  0  0  0  0  0  0  0
   16.3763   18.7525    7.7964 H   0  0  0  0  0  0  0  0  0  0  0  0
   17.4468   17.3092    6.7106 C   0  0  0  0  0  0  0  0  0  0  0  0
   18.4911   17.3627    5.5997 C   0  0  0  0  0  0  0  0  0  0  0  0
   19.1018   15.9959    5.2756 C   0  0  0  0  0  0  0  0  0  0  0  0
   18.2375   14.7756    5.6270 C   0  0  0  0  0  0  0  0  0  0  0  0
   16.5317   16.0645    6.7112 C   0  0  0  0  0  0  0  0  0  0  0  0
   16.8113   15.0940    5.6349 N   0  0  0  0  0  0  0  0  0  0  0  0
   15.9601   13.8985    5.7652 C   0  0  0  0  0  0  0  0  0  0  0  0
   14.9722   13.7448    4.6208 C   0  0  0  0  0  0  0  0  0  0  0  0
   14.4793   12.4745    4.2821 C   0  0  0  0  0  0  0  0  0  0  0  0
   13.5642   12.3148    3.2375 C   0  0  0  0  0  0  0  0  0  0  0  0
   13.1417   13.4196    2.5026 C   0  0  0  0  0  0  0  0  0  0  0  0
   13.6219   14.6859    2.8223 C   0  0  0  0  0  0  0  0  0  0  0  0
   14.5172   14.8482    3.8826 C   0  0  0  0  0  0  0  0  0  0  0  0
  1 16  1  0  0  0
  2  3  2  0  0  0
  2 11  1  0  0  0
  4  8  2  0  0  0
  5  6  1  0  0  0
  5  1  2  0  0  0
  7  9  1  0  0  0
 11 12  1  0  0  0
 18 16  1  0  0  0
 18 19  1  0  0  0
 19 20  1  0  0  0
 20 21  1  0  0  0
 21 23  1  0  0  0
 22 23  1  0  0  0
 22 18  1  0  0  0
 24 23  1  0  0  0
 24 25  1  0  0  0
 26 27  2  0  0  0
 28 29  2  0  0  0
 30 25  2  0  0  0
  9  4  1  0  0  0
  1  2  1  0  0  0
  3  8  1  0  0  0
  4  5  1  0  0  0
  6  7  2  0  0  0
 11 13  2  0  0  0
 25 26  1  0  0  0
 27 28  1  0  0  0
 29 30  1  0  0  0
  9 10  1  0  0  0
 12 14  1  0  0  0
 12 15  1  0  0  0
 16 17  1  0  0  0
M  END
> <minimizedAffinity>
-8.61607

$$$$
CHEMBL3593766


 30 33  0  0  0  0  0  0  0  0999 V2000
   15.7227   11.3906    4.5401 C   0  0  0  0  0  0  0  0  0  0  0  0
   16.3341   10.0972    4.4185 C   0  0  0  0  0  0  0  0  0  0  0  0
   15.7261    9.1160    3.6343 C   0  0  0  0  0  0  0  0  0  0  0  0
   14.0367   10.4615    3.0615 C   0  0  0  0  0  0  0  0  0  0  0  0
   14.5078   11.5461    3.8038 C   0  0  0  0  0  0  0  0  0  0  0  0
   13.5377   12.5731    3.5801 C   0  0  0  0  0  0  0  0  0  0  0  0
   12.5500   12.0983    2.7449 C   0  0  0  0  0  0  0  0  0  0  0  0
   14.5819    9.2439    2.9319 N   0  0  0  0  0  0  0  0  0  0  0  0
   12.8716   10.8114    2.4372 N   0  0  0  0  0  0  0  0  0  0  0  0
   12.3493   10.1888    1.8397 H   0  0  0  0  0  0  0  0  0  0  0  0
   17.6209    9.7816    5.1255 C   0  0  0  0  0  0  0  0  0  0  0  0
   17.5958    9.1789    6.3568 N   0  0  0  0  0  0  0  0  0  0  0  0
   18.7192   10.0439    4.6389 O   0  0  0  0  0  0  0  0  0  0  0  0
   18.4984    8.9935    6.7774 H   0  0  0  0  0  0  0  0  0  0  0  0
   16.7836    8.8871    6.8756 H   0  0  0  0  0  0  0  0  0  0  0  0
   16.3548   12.3666    5.3100 N   0  0  0  0  0  0  0  0  0  0  0  0
   16.1028   12.3312    6.3057 H   0  0  0  0  0  0  0  0  0  0  0  0
   17.3407   13.3921    4.9828 C   0  0  0  0  0  0  0  0  0  0  0  0
   18.5176   13.3999    5.9536 C   0  0  0  0  0  0  0  0  0  0  0  0
   19.4342   14.6155    5.7851 C   0  0  0  0  0  0  0  0  0  0  0  0
   18.7874   15.8608    5.1601 C   0  0  0  0  0  0  0  0  0  0  0  0
   16.7061   14.7693    4.6874 C   0  0  0  0  0  0  0  0  0  0  0  0
   17.3440   15.9036    5.3840 N   0  0  0  0  0  0  0  0  0  0  0  0
   16.7404   17.1838    4.9747 C   0  0  0  0  0  0  0  0  0  0  0  0
   15.3891   17.4374    5.6219 C   0  0  0  0  0  0  0  0  0  0  0  0
   15.2114   17.2045    6.9951 C   0  0  0  0  0  0  0  0  0  0  0  0
   13.9777   17.4394    7.6091 C   0  0  0  0  0  0  0  0  0  0  0  0
   12.8970   17.8928    6.8569 C   0  0  0  0  0  0  0  0  0  0  0  0
   13.0540   18.1262    5.4941 C   0  0  0  0  0  0  0  0  0  0  0  0
   14.2940   17.9152    4.8858 C   0  0  0  0  0  0  0  0  0  0  0  0
  1 16  1  0  0  0
  2  3  2  0  0  0
  2 11  1  0  0  0
  4  8  2  0  0  0
  5  6  1  0  0  0
  5  1  2  0  0  0
  7  9  1  0  0  0
 11 12  1  0  0  0
 18 16  1  0  0  0
 18 19  1  0  0  0
 19 20  1  0  0  0
 20 21  1  0  0  0
 21 23  1  0  0  0
 22 23  1  0  0  0
 22 18  1  0  0  0
 24 23  1  0  0  0
 24 25  1  0  0  0
 26 27  2  0  0  0
 28 29  2  0  0  0
 30 25  2  0  0  0
  9  4  1  0  0  0
  1  2  1  0  0  0
  3  8  1  0  0  0
  4  5  1  0  0  0
  6  7  2  0  0  0
 11 13  2  0  0  0
 25 26  1  0  0  0
 27 28  1  0  0  0
 29 30  1  0  0  0
  9 10  1  0  0  0
 12 14  1  0  0  0
 12 15  1  0  0  0
 16 17  1  0  0  0
M  END
> <minimizedAffinity>
-8.57645

$$$$
CHEMBL3593766


 30 33  0  0  0  0  0  0  0  0999 V2000
   14.1413   10.5276    3.3750 C   0  0  0  0  0  0  0  0  0  0  0  0
   14.3194    9.1161    3.1813 C   0  0  0  0  0  0  0  0  0  0  0  0
   13.4556    8.4200    2.3347 C   0  0  0  0  0  0  0  0  0  0  0  0
   12.2891   10.2575    1.8294 C   0  0  0  0  0  0  0  0  0  0  0  0
   13.0565   11.0970    2.6392 C   0  0  0  0  0  0  0  0  0  0  0  0
   12.4636   12.3876    2.4693 C   0  0  0  0  0  0  0  0  0  0  0  0
   11.3995   12.2935    1.5990 C   0  0  0  0  0  0  0  0  0  0  0  0
   12.4283    8.9392    1.6318 N   0  0  0  0  0  0  0  0  0  0  0  0
   11.3095   10.9894    1.2175 N   0  0  0  0  0  0  0  0  0  0  0  0
   10.6346   10.5960    0.5795 H   0  0  0  0  0  0  0  0  0  0  0  0
   15.4230    8.3740    3.8787 C   0  0  0  0  0  0  0  0  0  0  0  0
   15.6921    7.0723    3.5425 N   0  0  0  0  0  0  0  0  0  0  0  0
   16.1115    8.8926    4.7556 O   0  0  0  0  0  0  0  0  0  0  0  0
   16.4492    6.6312    4.0506 H   0  0  0  0  0  0  0  0  0  0  0  0
   15.2333    6.5179    2.8380 H   0  0  0  0  0  0  0  0  0  0  0  0
   15.0267   11.2120    4.2070 N   0  0  0  0  0  0  0  0  0  0  0  0
   15.3509   10.6557    5.0081 H   0  0  0  0  0  0  0  0  0  0  0  0
   15.6185   12.5442    4.1307 C   0  0  0  0  0  0  0  0  0  0  0  0
   17.1234   12.5287    4.3813 C   0  0  0  0  0  0  0  0  0  0  0  0
   17.7237   13.9273    4.5532 C   0  0  0  0  0  0  0  0  0  0  0  0
   16.7532   15.0191    5.0284 C   0  0  0  0  0  0  0  0  0  0  0  0
   14.8189   13.6075    4.9160 C   0  0  0  0  0  0  0  0  0  0  0  0
   15.6359   14.4691    5.7929 N   0  0  0  0  0  0  0  0  0  0  0  0
   14.8112   15.5112    6.4291 C   0  0  0  0  0  0  0  0  0  0  0  0
   15.2143   16.9187    6.0221 C   0  0  0  0  0  0  0  0  0  0  0  0
   14.6895   17.4907    4.8522 C   0  0  0  0  0  0  0  0  0  0  0  0
   15.0429   18.7870    4.4661 C   0  0  0  0  0  0  0  0  0  0  0  0
   15.9410   19.5249    5.2330 C   0  0  0  0  0  0  0  0  0  0  0  0
   16.4734   18.9728    6.3940 C   0  0  0  0  0  0  0  0  0  0  0  0
   16.1005   17.6867    6.7928 C   0  0  0  0  0  0  0  0  0  0  0  0
  1 16  1  0  0  0
  2  3  2  0  0  0
  2 11  1  0  0  0
  4  8  2  0  0  0
  5  6  1  0  0  0
  5  1  2  0  0  0
  7  9  1  0  0  0
 11 12  1  0  0  0
 18 16  1  0  0  0
 18 19  1  0  0  0
 19 20  1  0  0  0
 20 21  1  0  0  0
 21 23  1  0  0  0
 22 23  1  0  0  0
 22 18  1  0  0  0
 24 23  1  0  0  0
 24 25  1  0  0  0
 26 27  2  0  0  0
 28 29  2  0  0  0
 30 25  2  0  0  0
  9  4  1  0  0  0
  1  2  1  0  0  0
  3  8  1  0  0  0
  4  5  1  0  0  0
  6  7  2  0  0  0
 11 13  2  0  0  0
 25 26  1  0  0  0
 27 28  1  0  0  0
 29 30  1  0  0  0
  9 10  1  0  0  0
 12 14  1  0  0  0
 12 15  1  0  0  0
 16 17  1  0  0  0
M  END
> <minimizedAffinity>
-8.54523

$$$$
CHEMBL4460419


 34 38  0  0  0  0  0  0  0  0999 V2000
   14.3968   13.9871    3.1134 C   0  0  0  0  0  0  0  0  0  0  0  0
   14.6322   15.2295    3.7413 C   0  0  0  0  0  0  0  0  0  0  0  0
   15.3035   16.2711    3.0797 C   0  0  0  0  0  0  0  0  0  0  0  0
   15.7550   16.0441    1.7785 C   0  0  0  0  0  0  0  0  0  0  0  0
   15.5403   14.8191    1.1468 C   0  0  0  0  0  0  0  0  0  0  0  0
   14.8663   13.7985    1.8074 C   0  0  0  0  0  0  0  0  0  0  0  0
   13.0398   10.4649    3.1656 C   0  0  0  0  0  0  0  0  0  0  0  0
   12.9268   11.9346    2.7660 C   0  0  0  0  0  0  0  0  0  0  0  0
   13.6253   12.8562    3.7870 C   0  0  0  0  0  0  0  0  0  0  0  0
   14.4816   12.0775    4.8144 C   0  0  0  0  0  0  0  0  0  0  0  0
   14.5146   10.0798    3.2965 C   0  0  0  0  0  0  0  0  0  0  0  0
   15.2358   11.0038    4.1603 N   0  0  0  0  0  0  0  0  0  0  0  0
   16.6017   10.9258    4.3821 C   0  0  0  0  0  0  0  0  0  0  0  0
   18.4546    9.5444    4.8244 C   0  0  0  0  0  0  0  0  0  0  0  0
   18.8099   11.7212    4.8562 C   0  0  0  0  0  0  0  0  0  0  0  0
   17.4902   12.0226    4.5359 C   0  0  0  0  0  0  0  0  0  0  0  0
   17.4296   13.4512    4.4953 C   0  0  0  0  0  0  0  0  0  0  0  0
   18.6763   13.9531    4.8042 C   0  0  0  0  0  0  0  0  0  0  0  0
   17.1513    9.6849    4.5285 N   0  0  0  0  0  0  0  0  0  0  0  0
   19.3584   10.5107    5.0151 N   0  0  0  0  0  0  0  0  0  0  0  0
   19.5060   12.8870    5.0131 N   0  0  0  0  0  0  0  0  0  0  0  0
   20.4848   12.9233    5.2582 H   0  0  0  0  0  0  0  0  0  0  0  0
   16.6253   17.9441    4.3990 C   0  0  0  0  0  0  0  0  0  0  0  0
   15.4732   17.5032    3.7637 N   0  0  0  0  0  0  0  0  0  0  0  0
   16.4690   19.1946    4.9560 N   0  0  0  0  0  0  0  0  0  0  0  0
   17.6678   17.3010    4.4677 O   0  0  0  0  0  0  0  0  0  0  0  0
   14.6819   18.1294    3.7552 H   0  0  0  0  0  0  0  0  0  0  0  0
   15.5597   19.6255    4.9864 H   0  0  0  0  0  0  0  0  0  0  0  0
   17.4516   19.9602    5.6013 C   0  0  0  0  0  0  0  0  0  0  0  0
   18.0494   21.0877    5.0475 C   0  0  0  0  0  0  0  0  0  0  0  0
   19.0238   21.7724    5.7716 C   0  0  0  0  0  0  0  0  0  0  0  0
   19.3760   21.3178    7.0318 C   0  0  0  0  0  0  0  0  0  0  0  0
   18.7263   20.1962    7.5170 C   0  0  0  0  0  0  0  0  0  0  0  0
   17.7726   19.5145    6.8368 N   0  0  0  0  0  0  0  0  0  0  0  0
  7  8  1  0  0  0
  8  9  1  0  0  0
  9 10  1  0  0  0
  9  1  1  0  0  0
 10 12  1  0  0  0
 11 12  1  0  0  0
 11  7  1  0  0  0
 14 19  2  0  0  0
 15 20  2  0  0  0
 16 17  1  0  0  0
 16 13  2  0  0  0
 18 21  1  0  0  0
  2  3  2  0  0  0
  3 24  1  0  0  0
  4  5  2  0  0  0
  6  1  2  0  0  0
 23 25  1  0  0  0
 29 34  2  0  0  0
 30 31  2  0  0  0
 32 33  2  0  0  0
 12 13  1  0  0  0
 21 15  1  0  0  0
 24 23  1  0  0  0
 25 29  1  0  0  0
 13 19  1  0  0  0
 14 20  1  0  0  0
 15 16  1  0  0  0
 17 18  2  0  0  0
  1  2  1  0  0  0
  3  4  1  0  0  0
  5  6  1  0  0  0
 23 26  2  0  0  0
 29 30  1  0  0  0
 31 32  1  0  0  0
 33 34  1  0  0  0
 21 22  1  0  0  0
 24 27  1  0  0  0
 25 28  1  0  0  0
M  END
> <minimizedAffinity>
-9.46408

$$$$
CHEMBL4460419


 34 38  0  0  0  0  0  0  0  0999 V2000
   17.7886   15.0468    5.5698 C   0  0  0  0  0  0  0  0  0  0  0  0
   17.8579   13.6829    5.9282 C   0  0  0  0  0  0  0  0  0  0  0  0
   19.0613   12.9628    5.8475 C   0  0  0  0  0  0  0  0  0  0  0  0
   20.1980   13.6264    5.3827 C   0  0  0  0  0  0  0  0  0  0  0  0
   20.1450   14.9707    5.0144 C   0  0  0  0  0  0  0  0  0  0  0  0
   18.9510   15.6764    5.1074 C   0  0  0  0  0  0  0  0  0  0  0  0
   15.0025   17.1047    4.0689 C   0  0  0  0  0  0  0  0  0  0  0  0
   16.4177   16.9780    4.6289 C   0  0  0  0  0  0  0  0  0  0  0  0
   16.5090   15.8681    5.6964 C   0  0  0  0  0  0  0  0  0  0  0  0
   15.2376   14.9880    5.7607 C   0  0  0  0  0  0  0  0  0  0  0  0
   14.5641   15.7659    3.4722 C   0  0  0  0  0  0  0  0  0  0  0  0
   14.7515   14.6716    4.4142 N   0  0  0  0  0  0  0  0  0  0  0  0
   14.5065   13.3454    4.0948 C   0  0  0  0  0  0  0  0  0  0  0  0
   15.2535   11.1168    4.2075 C   0  0  0  0  0  0  0  0  0  0  0  0
   13.4470   11.4979    3.0005 C   0  0  0  0  0  0  0  0  0  0  0  0
   13.4493   12.8604    3.2805 C   0  0  0  0  0  0  0  0  0  0  0  0
   12.3222   13.3910    2.5775 C   0  0  0  0  0  0  0  0  0  0  0  0
   11.7043   12.3628    1.8972 C   0  0  0  0  0  0  0  0  0  0  0  0
   15.3902   12.4093    4.5489 N   0  0  0  0  0  0  0  0  0  0  0  0
   14.3138   10.5721    3.4283 N   0  0  0  0  0  0  0  0  0  0  0  0
   12.3968   11.2167    2.1720 N   0  0  0  0  0  0  0  0  0  0  0  0
   12.1947   10.2912    1.8223 H   0  0  0  0  0  0  0  0  0  0  0  0
   18.8784   10.4951    5.4431 C   0  0  0  0  0  0  0  0  0  0  0  0
   19.0606   11.6038    6.2572 N   0  0  0  0  0  0  0  0  0  0  0  0
   18.9496    9.3126    6.1467 N   0  0  0  0  0  0  0  0  0  0  0  0
   18.6717   10.5493    4.2350 O   0  0  0  0  0  0  0  0  0  0  0  0
   19.2435   11.4339    7.2350 H   0  0  0  0  0  0  0  0  0  0  0  0
   18.9905    9.3234    7.1525 H   0  0  0  0  0  0  0  0  0  0  0  0
   18.8846    8.0131    5.6225 C   0  0  0  0  0  0  0  0  0  0  0  0
   17.7069    7.2850    5.4877 C   0  0  0  0  0  0  0  0  0  0  0  0
   17.7547    5.9953    4.9615 C   0  0  0  0  0  0  0  0  0  0  0  0
   18.9757    5.4641    4.5797 C   0  0  0  0  0  0  0  0  0  0  0  0
   20.0998    6.2565    4.7345 C   0  0  0  0  0  0  0  0  0  0  0  0
   20.0814    7.5146    5.2384 N   0  0  0  0  0  0  0  0  0  0  0  0
  7  8  1  0  0  0
  8  9  1  0  0  0
  9 10  1  0  0  0
  9  1  1  0  0  0
 10 12  1  0  0  0
 11 12  1  0  0  0
 11  7  1  0  0  0
 14 19  2  0  0  0
 15 20  2  0  0  0
 16 17  1  0  0  0
 16 13  2  0  0  0
 18 21  1  0  0  0
  2  3  2  0  0  0
  3 24  1  0  0  0
  4  5  2  0  0  0
  6  1  2  0  0  0
 23 25  1  0  0  0
 29 34  2  0  0  0
 30 31  2  0  0  0
 32 33  2  0  0  0
 12 13  1  0  0  0
 21 15  1  0  0  0
 24 23  1  0  0  0
 25 29  1  0  0  0
 13 19  1  0  0  0
 14 20  1  0  0  0
 15 16  1  0  0  0
 17 18  2  0  0  0
  1  2  1  0  0  0
  3  4  1  0  0  0
  5  6  1  0  0  0
 23 26  2  0  0  0
 29 30  1  0  0  0
 31 32  1  0  0  0
 33 34  1  0  0  0
 21 22  1  0  0  0
 24 27  1  0  0  0
 25 28  1  0  0  0
M  END
> <minimizedAffinity>
-9.41904

$$$$
CHEMBL4460419


 34 38  0  0  0  0  0  0  0  0999 V2000
   14.3083   13.8172    3.2720 C   0  0  0  0  0  0  0  0  0  0  0  0
   14.5053   14.9673    4.0669 C   0  0  0  0  0  0  0  0  0  0  0  0
   15.0681   16.1395    3.5355 C   0  0  0  0  0  0  0  0  0  0  0  0
   15.4503   16.1386    2.1930 C   0  0  0  0  0  0  0  0  0  0  0  0
   15.2726   15.0078    1.3959 C   0  0  0  0  0  0  0  0  0  0  0  0
   14.7057   13.8562    1.9296 C   0  0  0  0  0  0  0  0  0  0  0  0
   13.5092   10.1360    3.0268 C   0  0  0  0  0  0  0  0  0  0  0  0
   13.2155   11.5932    2.6769 C   0  0  0  0  0  0  0  0  0  0  0  0
   13.6520   12.5480    3.8072 C   0  0  0  0  0  0  0  0  0  0  0  0
   14.5033   11.8469    4.8929 C   0  0  0  0  0  0  0  0  0  0  0  0
   15.0033    9.9662    3.3089 C   0  0  0  0  0  0  0  0  0  0  0  0
   15.4783   10.9357    4.2859 N   0  0  0  0  0  0  0  0  0  0  0  0
   16.8086   11.0479    4.6583 C   0  0  0  0  0  0  0  0  0  0  0  0
   18.6856   12.4498    4.8795 C   0  0  0  0  0  0  0  0  0  0  0  0
   19.0001   10.3017    5.2700 C   0  0  0  0  0  0  0  0  0  0  0  0
   17.6674    9.9811    5.0331 C   0  0  0  0  0  0  0  0  0  0  0  0
   17.5819    8.5655    5.2196 C   0  0  0  0  0  0  0  0  0  0  0  0
   18.8363    8.0869    5.5346 C   0  0  0  0  0  0  0  0  0  0  0  0
   17.3796   12.2868    4.6080 N   0  0  0  0  0  0  0  0  0  0  0  0
   19.5751   11.5089    5.2118 N   0  0  0  0  0  0  0  0  0  0  0  0
   19.6856    9.1576    5.5688 N   0  0  0  0  0  0  0  0  0  0  0  0
   20.6749    9.1366    5.7697 H   0  0  0  0  0  0  0  0  0  0  0  0
   16.3910   17.8061    4.8618 C   0  0  0  0  0  0  0  0  0  0  0  0
   15.2038   17.2665    4.3875 N   0  0  0  0  0  0  0  0  0  0  0  0
   16.1818   18.9119    5.6567 N   0  0  0  0  0  0  0  0  0  0  0  0
   17.5047   17.3558    4.6126 O   0  0  0  0  0  0  0  0  0  0  0  0
   14.3482   17.7361    4.6438 H   0  0  0  0  0  0  0  0  0  0  0  0
   15.2487   19.1646    5.9373 H   0  0  0  0  0  0  0  0  0  0  0  0
   17.1608   19.7356    6.2318 C   0  0  0  0  0  0  0  0  0  0  0  0
   17.3161   21.0858    5.9348 C   0  0  0  0  0  0  0  0  0  0  0  0
   18.3291   21.8125    6.5577 C   0  0  0  0  0  0  0  0  0  0  0  0
   19.1608   21.1759    7.4642 C   0  0  0  0  0  0  0  0  0  0  0  0
   18.9336   19.8338    7.7145 C   0  0  0  0  0  0  0  0  0  0  0  0
   17.9537   19.1045    7.1271 N   0  0  0  0  0  0  0  0  0  0  0  0
  7  8  1  0  0  0
  8  9  1  0  0  0
  9 10  1  0  0  0
  9  1  1  0  0  0
 10 12  1  0  0  0
 11 12  1  0  0  0
 11  7  1  0  0  0
 14 19  2  0  0  0
 15 20  2  0  0  0
 16 17  1  0  0  0
 16 13  2  0  0  0
 18 21  1  0  0  0
  2  3  2  0  0  0
  3 24  1  0  0  0
  4  5  2  0  0  0
  6  1  2  0  0  0
 23 25  1  0  0  0
 29 34  2  0  0  0
 30 31  2  0  0  0
 32 33  2  0  0  0
 12 13  1  0  0  0
 21 15  1  0  0  0
 24 23  1  0  0  0
 25 29  1  0  0  0
 13 19  1  0  0  0
 14 20  1  0  0  0
 15 16  1  0  0  0
 17 18  2  0  0  0
  1  2  1  0  0  0
  3  4  1  0  0  0
  5  6  1  0  0  0
 23 26  2  0  0  0
 29 30  1  0  0  0
 31 32  1  0  0  0
 33 34  1  0  0  0
 21 22  1  0  0  0
 24 27  1  0  0  0
 25 28  1  0  0  0
M  END
> <minimizedAffinity>
-9.30604

$$$$
CHEMBL4460419


 34 38  0  0  0  0  0  0  0  0999 V2000
   18.7727   15.7092    6.4106 C   0  0  0  0  0  0  0  0  0  0  0  0
   17.7944   14.6973    6.2981 C   0  0  0  0  0  0  0  0  0  0  0  0
   17.9819   13.5844    5.4619 C   0  0  0  0  0  0  0  0  0  0  0  0
   19.1623   13.5068    4.7208 C   0  0  0  0  0  0  0  0  0  0  0  0
   20.1347   14.5027    4.8117 C   0  0  0  0  0  0  0  0  0  0  0  0
   19.9430   15.5950    5.6498 C   0  0  0  0  0  0  0  0  0  0  0  0
   18.7821   19.4227    7.0882 C   0  0  0  0  0  0  0  0  0  0  0  0
   19.5130   18.0905    6.9357 C   0  0  0  0  0  0  0  0  0  0  0  0
   18.6203   16.9022    7.3493 C   0  0  0  0  0  0  0  0  0  0  0  0
   17.1424   17.3063    7.5676 C   0  0  0  0  0  0  0  0  0  0  0  0
   17.5052   19.4080    6.2456 C   0  0  0  0  0  0  0  0  0  0  0  0
   16.6931   18.2317    6.5228 N   0  0  0  0  0  0  0  0  0  0  0  0
   15.5249   17.9376    5.8374 C   0  0  0  0  0  0  0  0  0  0  0  0
   13.1727   18.0018    5.8263 C   0  0  0  0  0  0  0  0  0  0  0  0
   14.1441   16.9358    4.1573 C   0  0  0  0  0  0  0  0  0  0  0  0
   15.4261   17.2092    4.6227 C   0  0  0  0  0  0  0  0  0  0  0  0
   16.3081   16.5927    3.6803 C   0  0  0  0  0  0  0  0  0  0  0  0
   15.5502   15.9663    2.7133 C   0  0  0  0  0  0  0  0  0  0  0  0
   14.3436   18.3263    6.4003 N   0  0  0  0  0  0  0  0  0  0  0  0
   12.9786   17.2994    4.7056 N   0  0  0  0  0  0  0  0  0  0  0  0
   14.2360   16.1917    3.0143 N   0  0  0  0  0  0  0  0  0  0  0  0
   13.4336   15.8625    2.4973 H   0  0  0  0  0  0  0  0  0  0  0  0
   16.1749   12.2579    4.3386 C   0  0  0  0  0  0  0  0  0  0  0  0
   16.9686   12.5911    5.4269 N   0  0  0  0  0  0  0  0  0  0  0  0
   15.2949   11.2375    4.6263 N   0  0  0  0  0  0  0  0  0  0  0  0
   16.2370   12.8056    3.2425 O   0  0  0  0  0  0  0  0  0  0  0  0
   16.8405   12.0563    6.2729 H   0  0  0  0  0  0  0  0  0  0  0  0
   15.1912   10.9100    5.5725 H   0  0  0  0  0  0  0  0  0  0  0  0
   14.4085   10.6114    3.7375 C   0  0  0  0  0  0  0  0  0  0  0  0
   13.2974   11.2336    3.1773 C   0  0  0  0  0  0  0  0  0  0  0  0
   12.4747   10.5165    2.3105 C   0  0  0  0  0  0  0  0  0  0  0  0
   12.7819    9.1972    2.0208 C   0  0  0  0  0  0  0  0  0  0  0  0
   13.9111    8.6545    2.6089 C   0  0  0  0  0  0  0  0  0  0  0  0
   14.7307    9.3298    3.4510 N   0  0  0  0  0  0  0  0  0  0  0  0
  7  8  1  0  0  0
  8  9  1  0  0  0
  9 10  1  0  0  0
  9  1  1  0  0  0
 10 12  1  0  0  0
 11 12  1  0  0  0
 11  7  1  0  0  0
 14 19  2  0  0  0
 15 20  2  0  0  0
 16 17  1  0  0  0
 16 13  2  0  0  0
 18 21  1  0  0  0
  2  3  2  0  0  0
  3 24  1  0  0  0
  4  5  2  0  0  0
  6  1  2  0  0  0
 23 25  1  0  0  0
 29 34  2  0  0  0
 30 31  2  0  0  0
 32 33  2  0  0  0
 12 13  1  0  0  0
 21 15  1  0  0  0
 24 23  1  0  0  0
 25 29  1  0  0  0
 13 19  1  0  0  0
 14 20  1  0  0  0
 15 16  1  0  0  0
 17 18  2  0  0  0
  1  2  1  0  0  0
  3  4  1  0  0  0
  5  6  1  0  0  0
 23 26  2  0  0  0
 29 30  1  0  0  0
 31 32  1  0  0  0
 33 34  1  0  0  0
 21 22  1  0  0  0
 24 27  1  0  0  0
 25 28  1  0  0  0
M  END
> <minimizedAffinity>
-9.17248

$$$$
CHEMBL4460419


 34 38  0  0  0  0  0  0  0  0999 V2000
   13.7278   12.8551    3.0916 C   0  0  0  0  0  0  0  0  0  0  0  0
   14.2216   13.5197    4.2353 C   0  0  0  0  0  0  0  0  0  0  0  0
   14.9748   14.7007    4.1304 C   0  0  0  0  0  0  0  0  0  0  0  0
   15.2442   15.2009    2.8553 C   0  0  0  0  0  0  0  0  0  0  0  0
   14.7731   14.5514    1.7143 C   0  0  0  0  0  0  0  0  0  0  0  0
   14.0205   13.3885    1.8301 C   0  0  0  0  0  0  0  0  0  0  0  0
   12.5714    9.5234    1.7455 C   0  0  0  0  0  0  0  0  0  0  0  0
   12.4955   11.0482    1.7837 C   0  0  0  0  0  0  0  0  0  0  0  0
   12.8635   11.6007    3.1762 C   0  0  0  0  0  0  0  0  0  0  0  0
   13.4627   10.5238    4.1125 C   0  0  0  0  0  0  0  0  0  0  0  0
   13.9795    9.0689    2.1346 C   0  0  0  0  0  0  0  0  0  0  0  0
   14.4097    9.6697    3.3892 N   0  0  0  0  0  0  0  0  0  0  0  0
   15.6747    9.4849    3.9243 C   0  0  0  0  0  0  0  0  0  0  0  0
   17.1499    8.0389    5.0514 C   0  0  0  0  0  0  0  0  0  0  0  0
   17.8520   10.1014    4.7071 C   0  0  0  0  0  0  0  0  0  0  0  0
   16.6881   10.4725    4.0420 C   0  0  0  0  0  0  0  0  0  0  0  0
   16.8766   11.8464    3.6913 C   0  0  0  0  0  0  0  0  0  0  0  0
   18.1069   12.2553    4.1614 C   0  0  0  0  0  0  0  0  0  0  0  0
   15.9701    8.2587    4.4467 N   0  0  0  0  0  0  0  0  0  0  0  0
   18.1490    8.9078    5.2348 N   0  0  0  0  0  0  0  0  0  0  0  0
   18.6903   11.1792    4.7698 N   0  0  0  0  0  0  0  0  0  0  0  0
   19.5957   11.1562    5.2161 H   0  0  0  0  0  0  0  0  0  0  0  0
   16.6954   15.7618    5.6136 C   0  0  0  0  0  0  0  0  0  0  0  0
   15.4083   15.3304    5.3263 N   0  0  0  0  0  0  0  0  0  0  0  0
   16.7845   16.3494    6.8567 N   0  0  0  0  0  0  0  0  0  0  0  0
   17.6533   15.6354    4.8575 O   0  0  0  0  0  0  0  0  0  0  0  0
   14.6964   15.5073    6.0192 H   0  0  0  0  0  0  0  0  0  0  0  0
   16.0037   16.3131    7.4911 H   0  0  0  0  0  0  0  0  0  0  0  0
   17.9145   16.9562    7.4247 C   0  0  0  0  0  0  0  0  0  0  0  0
   18.3402   18.2461    7.1243 C   0  0  0  0  0  0  0  0  0  0  0  0
   19.4840   18.7512    7.7400 C   0  0  0  0  0  0  0  0  0  0  0  0
   20.1737   17.9587    8.6428 C   0  0  0  0  0  0  0  0  0  0  0  0
   19.6789   16.6914    8.8968 C   0  0  0  0  0  0  0  0  0  0  0  0
   18.5673   16.1771    8.3164 N   0  0  0  0  0  0  0  0  0  0  0  0
  7  8  1  0  0  0
  8  9  1  0  0  0
  9 10  1  0  0  0
  9  1  1  0  0  0
 10 12  1  0  0  0
 11 12  1  0  0  0
 11  7  1  0  0  0
 14 19  2  0  0  0
 15 20  2  0  0  0
 16 17  1  0  0  0
 16 13  2  0  0  0
 18 21  1  0  0  0
  2  3  2  0  0  0
  3 24  1  0  0  0
  4  5  2  0  0  0
  6  1  2  0  0  0
 23 25  1  0  0  0
 29 34  2  0  0  0
 30 31  2  0  0  0
 32 33  2  0  0  0
 12 13  1  0  0  0
 21 15  1  0  0  0
 24 23  1  0  0  0
 25 29  1  0  0  0
 13 19  1  0  0  0
 14 20  1  0  0  0
 15 16  1  0  0  0
 17 18  2  0  0  0
  1  2  1  0  0  0
  3  4  1  0  0  0
  5  6  1  0  0  0
 23 26  2  0  0  0
 29 30  1  0  0  0
 31 32  1  0  0  0
 33 34  1  0  0  0
 21 22  1  0  0  0
 24 27  1  0  0  0
 25 28  1  0  0  0
M  END
> <minimizedAffinity>
-8.90830

$$$$
CHEMBL4460419


 34 38  0  0  0  0  0  0  0  0999 V2000
   20.0872    6.4700    5.6948 C   0  0  0  0  0  0  0  0  0  0  0  0
   18.9609    6.6768    4.8688 C   0  0  0  0  0  0  0  0  0  0  0  0
   17.6836    6.2282    5.2431 C   0  0  0  0  0  0  0  0  0  0  0  0
   17.5512    5.5490    6.4554 C   0  0  0  0  0  0  0  0  0  0  0  0
   18.6550    5.3267    7.2788 C   0  0  0  0  0  0  0  0  0  0  0  0
   19.9130    5.7836    6.9031 C   0  0  0  0  0  0  0  0  0  0  0  0
   23.8499    6.3481    5.9730 C   0  0  0  0  0  0  0  0  0  0  0  0
   22.4857    6.7991    6.4906 C   0  0  0  0  0  0  0  0  0  0  0  0
   21.4765    6.9912    5.3397 C   0  0  0  0  0  0  0  0  0  0  0  0
   21.9931    6.4433    3.9877 C   0  0  0  0  0  0  0  0  0  0  0  0
   23.6962    5.0444    5.1872 C   0  0  0  0  0  0  0  0  0  0  0  0
   22.6619    5.1511    4.1679 N   0  0  0  0  0  0  0  0  0  0  0  0
   22.2698    4.0873    3.3708 C   0  0  0  0  0  0  0  0  0  0  0  0
   22.5096    2.9663    1.3157 C   0  0  0  0  0  0  0  0  0  0  0  0
   20.9263    2.2348    2.6661 C   0  0  0  0  0  0  0  0  0  0  0  0
   21.2249    3.1683    3.6531 C   0  0  0  0  0  0  0  0  0  0  0  0
   20.2912    2.9140    4.7065 C   0  0  0  0  0  0  0  0  0  0  0  0
   19.4677    1.8764    4.3233 C   0  0  0  0  0  0  0  0  0  0  0  0
   22.8976    3.9293    2.1689 N   0  0  0  0  0  0  0  0  0  0  0  0
   21.5247    2.0774    1.4793 N   0  0  0  0  0  0  0  0  0  0  0  0
   19.8730    1.4697    3.0827 N   0  0  0  0  0  0  0  0  0  0  0  0
   19.4688    0.7283    2.5290 H   0  0  0  0  0  0  0  0  0  0  0  0
   15.9268    7.7125    4.2445 C   0  0  0  0  0  0  0  0  0  0  0  0
   16.5936    6.5028    4.3764 N   0  0  0  0  0  0  0  0  0  0  0  0
   14.9218    7.6556    3.3036 N   0  0  0  0  0  0  0  0  0  0  0  0
   16.1897    8.7223    4.8899 O   0  0  0  0  0  0  0  0  0  0  0  0
   16.3008    5.7463    3.7763 H   0  0  0  0  0  0  0  0  0  0  0  0
   14.6595    6.7735    2.8957 H   0  0  0  0  0  0  0  0  0  0  0  0
   14.1083    8.7138    2.8722 C   0  0  0  0  0  0  0  0  0  0  0  0
   14.2273   10.0234    3.3262 C   0  0  0  0  0  0  0  0  0  0  0  0
   13.3603   10.9994    2.8381 C   0  0  0  0  0  0  0  0  0  0  0  0
   12.3978   10.6463    1.9066 C   0  0  0  0  0  0  0  0  0  0  0  0
   12.3522    9.3253    1.4965 C   0  0  0  0  0  0  0  0  0  0  0  0
   13.1852    8.3574    1.9507 N   0  0  0  0  0  0  0  0  0  0  0  0
  7  8  1  0  0  0
  8  9  1  0  0  0
  9 10  1  0  0  0
  9  1  1  0  0  0
 10 12  1  0  0  0
 11 12  1  0  0  0
 11  7  1  0  0  0
 14 19  2  0  0  0
 15 20  2  0  0  0
 16 17  1  0  0  0
 16 13  2  0  0  0
 18 21  1  0  0  0
  2  3  2  0  0  0
  3 24  1  0  0  0
  4  5  2  0  0  0
  6  1  2  0  0  0
 23 25  1  0  0  0
 29 34  2  0  0  0
 30 31  2  0  0  0
 32 33  2  0  0  0
 12 13  1  0  0  0
 21 15  1  0  0  0
 24 23  1  0  0  0
 25 29  1  0  0  0
 13 19  1  0  0  0
 14 20  1  0  0  0
 15 16  1  0  0  0
 17 18  2  0  0  0
  1  2  1  0  0  0
  3  4  1  0  0  0
  5  6  1  0  0  0
 23 26  2  0  0  0
 29 30  1  0  0  0
 31 32  1  0  0  0
 33 34  1  0  0  0
 21 22  1  0  0  0
 24 27  1  0  0  0
 25 28  1  0  0  0
M  END
> <minimizedAffinity>
-8.78688

$$$$
CHEMBL4460419


 34 38  0  0  0  0  0  0  0  0999 V2000
   15.8281   18.5815    5.2008 C   0  0  0  0  0  0  0  0  0  0  0  0
   15.4599   17.4808    4.3968 C   0  0  0  0  0  0  0  0  0  0  0  0
   14.1323   17.0257    4.3384 C   0  0  0  0  0  0  0  0  0  0  0  0
   13.1750   17.6806    5.1151 C   0  0  0  0  0  0  0  0  0  0  0  0
   13.5232   18.7629    5.9231 C   0  0  0  0  0  0  0  0  0  0  0  0
   14.8384   19.2112    5.9660 C   0  0  0  0  0  0  0  0  0  0  0  0
   18.9996   19.4407    7.0592 C   0  0  0  0  0  0  0  0  0  0  0  0
   17.5842   19.7858    6.6009 C   0  0  0  0  0  0  0  0  0  0  0  0
   17.2508   19.1310    5.2444 C   0  0  0  0  0  0  0  0  0  0  0  0
   18.3074   18.0904    4.8019 C   0  0  0  0  0  0  0  0  0  0  0  0
   19.1516   17.9215    7.1588 C   0  0  0  0  0  0  0  0  0  0  0  0
   18.7287   17.2586    5.9333 N   0  0  0  0  0  0  0  0  0  0  0  0
   18.6916   15.8805    5.7903 C   0  0  0  0  0  0  0  0  0  0  0  0
   17.3968   13.9185    5.8966 C   0  0  0  0  0  0  0  0  0  0  0  0
   19.5600   13.6621    5.5502 C   0  0  0  0  0  0  0  0  0  0  0  0
   19.8054   15.0312    5.5579 C   0  0  0  0  0  0  0  0  0  0  0  0
   21.2147   15.1622    5.3504 C   0  0  0  0  0  0  0  0  0  0  0  0
   21.7631   13.9011    5.2473 C   0  0  0  0  0  0  0  0  0  0  0  0
   17.4862   15.2585    5.9439 N   0  0  0  0  0  0  0  0  0  0  0  0
   18.3865   13.0392    5.7121 N   0  0  0  0  0  0  0  0  0  0  0  0
   20.7413   13.0003    5.3632 N   0  0  0  0  0  0  0  0  0  0  0  0
   20.8178   11.9940    5.3311 H   0  0  0  0  0  0  0  0  0  0  0  0
   13.9355   14.5865    3.7926 C   0  0  0  0  0  0  0  0  0  0  0  0
   13.8324   15.9348    3.4814 N   0  0  0  0  0  0  0  0  0  0  0  0
   13.5530   13.7774    2.7449 N   0  0  0  0  0  0  0  0  0  0  0  0
   14.3259   14.1526    4.8718 O   0  0  0  0  0  0  0  0  0  0  0  0
   13.4791   16.1718    2.5664 H   0  0  0  0  0  0  0  0  0  0  0  0
   13.3655   14.1759    1.8397 H   0  0  0  0  0  0  0  0  0  0  0  0
   13.4652   12.3774    2.7479 C   0  0  0  0  0  0  0  0  0  0  0  0
   14.3844   11.5402    3.3719 C   0  0  0  0  0  0  0  0  0  0  0  0
   14.2080   10.1591    3.3067 C   0  0  0  0  0  0  0  0  0  0  0  0
   13.1175    9.6467    2.6235 C   0  0  0  0  0  0  0  0  0  0  0  0
   12.2421   10.5461    2.0401 C   0  0  0  0  0  0  0  0  0  0  0  0
   12.3867   11.8927    2.0919 N   0  0  0  0  0  0  0  0  0  0  0  0
  7  8  1  0  0  0
  8  9  1  0  0  0
  9 10  1  0  0  0
  9  1  1  0  0  0
 10 12  1  0  0  0
 11 12  1  0  0  0
 11  7  1  0  0  0
 14 19  2  0  0  0
 15 20  2  0  0  0
 16 17  1  0  0  0
 16 13  2  0  0  0
 18 21  1  0  0  0
  2  3  2  0  0  0
  3 24  1  0  0  0
  4  5  2  0  0  0
  6  1  2  0  0  0
 23 25  1  0  0  0
 29 34  2  0  0  0
 30 31  2  0  0  0
 32 33  2  0  0  0
 12 13  1  0  0  0
 21 15  1  0  0  0
 24 23  1  0  0  0
 25 29  1  0  0  0
 13 19  1  0  0  0
 14 20  1  0  0  0
 15 16  1  0  0  0
 17 18  2  0  0  0
  1  2  1  0  0  0
  3  4  1  0  0  0
  5  6  1  0  0  0
 23 26  2  0  0  0
 29 30  1  0  0  0
 31 32  1  0  0  0
 33 34  1  0  0  0
 21 22  1  0  0  0
 24 27  1  0  0  0
 25 28  1  0  0  0
M  END
> <minimizedAffinity>
-8.76573

$$$$
CHEMBL4460419


 34 38  0  0  0  0  0  0  0  0999 V2000
   17.2200   13.8460    5.6219 C   0  0  0  0  0  0  0  0  0  0  0  0
   17.7364   12.6156    5.1605 C   0  0  0  0  0  0  0  0  0  0  0  0
   19.0869   12.2729    5.3388 C   0  0  0  0  0  0  0  0  0  0  0  0
   19.9232   13.1928    5.9736 C   0  0  0  0  0  0  0  0  0  0  0  0
   19.4321   14.4174    6.4263 C   0  0  0  0  0  0  0  0  0  0  0  0
   18.0917   14.7422    6.2531 C   0  0  0  0  0  0  0  0  0  0  0  0
   14.1947   14.7358    3.5468 C   0  0  0  0  0  0  0  0  0  0  0  0
   15.4827   15.1277    4.2678 C   0  0  0  0  0  0  0  0  0  0  0  0
   15.7477   14.2235    5.4893 C   0  0  0  0  0  0  0  0  0  0  0  0
   14.8081   12.9949    5.5445 C   0  0  0  0  0  0  0  0  0  0  0  0
   14.2761   13.2724    3.1081 C   0  0  0  0  0  0  0  0  0  0  0  0
   14.6453   12.4004    4.2142 N   0  0  0  0  0  0  0  0  0  0  0  0
   14.8640   11.0398    4.0672 C   0  0  0  0  0  0  0  0  0  0  0  0
   16.2265    9.1919    4.5831 C   0  0  0  0  0  0  0  0  0  0  0  0
   14.5886    8.8466    3.1466 C   0  0  0  0  0  0  0  0  0  0  0  0
   14.1361   10.1597    3.2236 C   0  0  0  0  0  0  0  0  0  0  0  0
   13.0181   10.2254    2.3337 C   0  0  0  0  0  0  0  0  0  0  0  0
   12.8487    8.9883    1.7483 C   0  0  0  0  0  0  0  0  0  0  0  0
   15.9128   10.4884    4.7451 N   0  0  0  0  0  0  0  0  0  0  0  0
   15.6221    8.2968    3.7953 N   0  0  0  0  0  0  0  0  0  0  0  0
   13.8076    8.1593    2.2600 N   0  0  0  0  0  0  0  0  0  0  0  0
   13.9496    7.1866    2.0293 H   0  0  0  0  0  0  0  0  0  0  0  0
   19.5715    9.8283    5.6137 C   0  0  0  0  0  0  0  0  0  0  0  0
   19.5253   11.0040    4.8782 N   0  0  0  0  0  0  0  0  0  0  0  0
   20.0321    8.7640    4.8696 N   0  0  0  0  0  0  0  0  0  0  0  0
   19.2468    9.7360    6.7932 O   0  0  0  0  0  0  0  0  0  0  0  0
   19.7991   10.9531    3.9083 H   0  0  0  0  0  0  0  0  0  0  0  0
   20.4079    8.9153    3.9481 H   0  0  0  0  0  0  0  0  0  0  0  0
   20.1311    7.4265    5.2808 C   0  0  0  0  0  0  0  0  0  0  0  0
   21.2863    6.8559    5.8054 C   0  0  0  0  0  0  0  0  0  0  0  0
   21.2800    5.5122    6.1755 C   0  0  0  0  0  0  0  0  0  0  0  0
   20.1207    4.7710    6.0164 C   0  0  0  0  0  0  0  0  0  0  0  0
   19.0103    5.4149    5.4989 C   0  0  0  0  0  0  0  0  0  0  0  0
   18.9872    6.7204    5.1355 N   0  0  0  0  0  0  0  0  0  0  0  0
  7  8  1  0  0  0
  8  9  1  0  0  0
  9 10  1  0  0  0
  9  1  1  0  0  0
 10 12  1  0  0  0
 11 12  1  0  0  0
 11  7  1  0  0  0
 14 19  2  0  0  0
 15 20  2  0  0  0
 16 17  1  0  0  0
 16 13  2  0  0  0
 18 21  1  0  0  0
  2  3  2  0  0  0
  3 24  1  0  0  0
  4  5  2  0  0  0
  6  1  2  0  0  0
 23 25  1  0  0  0
 29 34  2  0  0  0
 30 31  2  0  0  0
 32 33  2  0  0  0
 12 13  1  0  0  0
 21 15  1  0  0  0
 24 23  1  0  0  0
 25 29  1  0  0  0
 13 19  1  0  0  0
 14 20  1  0  0  0
 15 16  1  0  0  0
 17 18  2  0  0  0
  1  2  1  0  0  0
  3  4  1  0  0  0
  5  6  1  0  0  0
 23 26  2  0  0  0
 29 30  1  0  0  0
 31 32  1  0  0  0
 33 34  1  0  0  0
 21 22  1  0  0  0
 24 27  1  0  0  0
 25 28  1  0  0  0
M  END
> <minimizedAffinity>
-8.67066

$$$$
CHEMBL4460419


 34 38  0  0  0  0  0  0  0  0999 V2000
   16.8882   12.1860    5.1177 C   0  0  0  0  0  0  0  0  0  0  0  0
   16.6514   10.7991    5.0009 C   0  0  0  0  0  0  0  0  0  0  0  0
   17.7085    9.8753    4.9520 C   0  0  0  0  0  0  0  0  0  0  0  0
   19.0151   10.3637    5.0038 C   0  0  0  0  0  0  0  0  0  0  0  0
   19.2674   11.7316    5.1087 C   0  0  0  0  0  0  0  0  0  0  0  0
   18.2135   12.6362    5.1660 C   0  0  0  0  0  0  0  0  0  0  0  0
   14.7426   14.9285    3.6599 C   0  0  0  0  0  0  0  0  0  0  0  0
   16.0172   14.4568    4.3565 C   0  0  0  0  0  0  0  0  0  0  0  0
   15.7607   13.2083    5.2258 C   0  0  0  0  0  0  0  0  0  0  0  0
   14.3641   12.5854    4.9883 C   0  0  0  0  0  0  0  0  0  0  0  0
   14.1786   13.7968    2.7986 C   0  0  0  0  0  0  0  0  0  0  0  0
   14.0371   12.5633    3.5592 N   0  0  0  0  0  0  0  0  0  0  0  0
   13.6225   11.3673    2.9947 C   0  0  0  0  0  0  0  0  0  0  0  0
   14.0820    9.0867    2.6411 C   0  0  0  0  0  0  0  0  0  0  0  0
   12.3258    9.9184    1.5974 C   0  0  0  0  0  0  0  0  0  0  0  0
   12.5037   11.1871    2.1392 C   0  0  0  0  0  0  0  0  0  0  0  0
   11.4457   11.9808    1.5944 C   0  0  0  0  0  0  0  0  0  0  0  0
   10.6952   11.1920    0.7480 C   0  0  0  0  0  0  0  0  0  0  0  0
   14.3852   10.2587    3.2245 N   0  0  0  0  0  0  0  0  0  0  0  0
   13.0726    8.8271    1.8040 N   0  0  0  0  0  0  0  0  0  0  0  0
   11.2397    9.9383    0.7677 N   0  0  0  0  0  0  0  0  0  0  0  0
   10.9181    9.1328    0.2506 H   0  0  0  0  0  0  0  0  0  0  0  0
   18.0581    7.4534    5.4986 C   0  0  0  0  0  0  0  0  0  0  0  0
   17.3915    8.4943    4.8682 N   0  0  0  0  0  0  0  0  0  0  0  0
   17.4905    6.2279    5.2259 N   0  0  0  0  0  0  0  0  0  0  0  0
   19.0441    7.5953    6.2148 O   0  0  0  0  0  0  0  0  0  0  0  0
   16.5791    8.2569    4.3186 H   0  0  0  0  0  0  0  0  0  0  0  0
   16.7657    6.1487    4.5318 H   0  0  0  0  0  0  0  0  0  0  0  0
   17.8672    4.9858    5.7580 C   0  0  0  0  0  0  0  0  0  0  0  0
   18.9448    4.2356    5.2984 C   0  0  0  0  0  0  0  0  0  0  0  0
   19.2280    3.0072    5.8929 C   0  0  0  0  0  0  0  0  0  0  0  0
   18.4316    2.5584    6.9336 C   0  0  0  0  0  0  0  0  0  0  0  0
   17.3862    3.3689    7.3406 C   0  0  0  0  0  0  0  0  0  0  0  0
   17.0913    4.5689    6.7839 N   0  0  0  0  0  0  0  0  0  0  0  0
  7  8  1  0  0  0
  8  9  1  0  0  0
  9 10  1  0  0  0
  9  1  1  0  0  0
 10 12  1  0  0  0
 11 12  1  0  0  0
 11  7  1  0  0  0
 14 19  2  0  0  0
 15 20  2  0  0  0
 16 17  1  0  0  0
 16 13  2  0  0  0
 18 21  1  0  0  0
  2  3  2  0  0  0
  3 24  1  0  0  0
  4  5  2  0  0  0
  6  1  2  0  0  0
 23 25  1  0  0  0
 29 34  2  0  0  0
 30 31  2  0  0  0
 32 33  2  0  0  0
 12 13  1  0  0  0
 21 15  1  0  0  0
 24 23  1  0  0  0
 25 29  1  0  0  0
 13 19  1  0  0  0
 14 20  1  0  0  0
 15 16  1  0  0  0
 17 18  2  0  0  0
  1  2  1  0  0  0
  3  4  1  0  0  0
  5  6  1  0  0  0
 23 26  2  0  0  0
 29 30  1  0  0  0
 31 32  1  0  0  0
 33 34  1  0  0  0
 21 22  1  0  0  0
 24 27  1  0  0  0
 25 28  1  0  0  0
M  END
> <minimizedAffinity>
-8.49327

$$$$
CHEMBL78377


 29 32  0  0  0  0  0  0  0  0999 V2000
   17.8121    5.3007    5.3140 C   0  0  0  0  0  0  0  0  0  0  0  0
   17.1852    6.6016    4.9636 C   0  0  0  0  0  0  0  0  0  0  0  0
   15.6631    7.9533    4.0171 C   0  0  0  0  0  0  0  0  0  0  0  0
   14.4175    9.6529    3.2931 C   0  0  0  0  0  0  0  0  0  0  0  0
   16.2632   10.1541    4.6614 C   0  0  0  0  0  0  0  0  0  0  0  0
   16.5388    8.7723    4.7098 C   0  0  0  0  0  0  0  0  0  0  0  0
   17.5275    7.9068    5.3025 C   0  0  0  0  0  0  0  0  0  0  0  0
   18.6927    8.3181    6.1342 C   0  0  0  0  0  0  0  0  0  0  0  0
   16.0579    6.6585    4.1828 N   0  0  0  0  0  0  0  0  0  0  0  0
   14.5967    8.3193    3.2964 N   0  0  0  0  0  0  0  0  0  0  0  0
   15.1894   10.5588    3.9358 N   0  0  0  0  0  0  0  0  0  0  0  0
   15.5699    5.8730    3.7788 H   0  0  0  0  0  0  0  0  0  0  0  0
   13.2773   10.1778    2.5039 C   0  0  0  0  0  0  0  0  0  0  0  0
   12.6374    9.3959    1.5215 C   0  0  0  0  0  0  0  0  0  0  0  0
   11.5592    9.8887    0.7779 C   0  0  0  0  0  0  0  0  0  0  0  0
   11.0926   11.1807    0.9989 C   0  0  0  0  0  0  0  0  0  0  0  0
   11.7019   11.9784    1.9618 C   0  0  0  0  0  0  0  0  0  0  0  0
   12.7794   11.4814    2.7034 C   0  0  0  0  0  0  0  0  0  0  0  0
   17.0339   11.0958    5.3074 N   0  0  0  0  0  0  0  0  0  0  0  0
   16.8448   11.3090    6.2770 H   0  0  0  0  0  0  0  0  0  0  0  0
   18.2259   11.6569    4.7107 C   0  0  0  0  0  0  0  0  0  0  0  0
   18.1387   13.1764    4.5684 C   0  0  0  0  0  0  0  0  0  0  0  0
   16.8811   13.7788    5.1910 C   0  0  0  0  0  0  0  0  0  0  0  0
   16.0046   13.9238    2.8168 C   0  0  0  0  0  0  0  0  0  0  0  0
   14.8053   14.5906    2.1702 C   0  0  0  0  0  0  0  0  0  0  0  0
   14.2497   15.5596    3.2058 C   0  0  0  0  0  0  0  0  0  0  0  0
   14.9214   15.1761    4.4982 C   0  0  0  0  0  0  0  0  0  0  0  0
   15.9197   14.2636    4.2119 N   0  0  0  0  0  0  0  0  0  0  0  0
   14.6401   15.6277    5.5950 O   0  0  0  0  0  0  0  0  0  0  0  0
  1  2  1  0  0  0
  2  9  1  0  0  0
  4 10  2  0  0  0
  4 13  1  0  0  0
 14 15  2  0  0  0
 16 17  2  0  0  0
 18 13  2  0  0  0
  5 11  2  0  0  0
  5 19  1  0  0  0
 21 19  1  0  0  0
 21 22  1  0  0  0
 22 23  1  0  0  0
 23 28  1  0  0  0
 24 28  1  0  0  0
 24 25  1  0  0  0
 25 26  1  0  0  0
 26 27  1  0  0  0
 27 28  1  0  0  0
  6  7  1  0  0  0
  6  3  2  0  0  0
  8  7  1  0  0  0
  9  3  1  0  0  0
  3 10  1  0  0  0
  4 11  1  0  0  0
 13 14  1  0  0  0
 15 16  1  0  0  0
 17 18  1  0  0  0
  5  6  1  0  0  0
 27 29  2  0  0  0
  7  2  2  0  0  0
  9 12  1  0  0  0
 19 20  1  0  0  0
M  END
> <minimizedAffinity>
-9.16840

$$$$
CHEMBL78377


 29 32  0  0  0  0  0  0  0  0999 V2000
   10.6050   11.4599    0.6853 C   0  0  0  0  0  0  0  0  0  0  0  0
   11.7400   11.3665    1.6398 C   0  0  0  0  0  0  0  0  0  0  0  0
   13.4217   10.3556    2.7307 C   0  0  0  0  0  0  0  0  0  0  0  0
   15.1560    9.7998    4.0142 C   0  0  0  0  0  0  0  0  0  0  0  0
   14.4196   12.0322    4.0767 C   0  0  0  0  0  0  0  0  0  0  0  0
   13.4215   11.6763    3.1469 C   0  0  0  0  0  0  0  0  0  0  0  0
   12.3302   12.3220    2.4611 C   0  0  0  0  0  0  0  0  0  0  0  0
   11.9113   13.7457    2.5884 C   0  0  0  0  0  0  0  0  0  0  0  0
   12.4157   10.1865    1.8256 N   0  0  0  0  0  0  0  0  0  0  0  0
   14.2467    9.3758    3.1174 N   0  0  0  0  0  0  0  0  0  0  0  0
   15.2715   11.0599    4.4918 N   0  0  0  0  0  0  0  0  0  0  0  0
   12.2199    9.3072    1.3706 H   0  0  0  0  0  0  0  0  0  0  0  0
   16.1104    8.7915    4.5346 C   0  0  0  0  0  0  0  0  0  0  0  0
   15.9825    7.4234    4.2216 C   0  0  0  0  0  0  0  0  0  0  0  0
   16.8842    6.4709    4.7095 C   0  0  0  0  0  0  0  0  0  0  0  0
   17.9400    6.8642    5.5257 C   0  0  0  0  0  0  0  0  0  0  0  0
   18.0948    8.2073    5.8532 C   0  0  0  0  0  0  0  0  0  0  0  0
   17.1911    9.1564    5.3627 C   0  0  0  0  0  0  0  0  0  0  0  0
   14.5579   13.3083    4.5774 N   0  0  0  0  0  0  0  0  0  0  0  0
   13.8461   13.6782    5.1921 H   0  0  0  0  0  0  0  0  0  0  0  0
   15.7740   14.0734    4.4119 C   0  0  0  0  0  0  0  0  0  0  0  0
   16.1742   14.8038    5.6938 C   0  0  0  0  0  0  0  0  0  0  0  0
   15.0310   15.5877    6.3346 C   0  0  0  0  0  0  0  0  0  0  0  0
   15.7020   17.9940    6.7650 C   0  0  0  0  0  0  0  0  0  0  0  0
   15.4755   19.3031    6.0329 C   0  0  0  0  0  0  0  0  0  0  0  0
   14.3869   19.0299    5.0031 C   0  0  0  0  0  0  0  0  0  0  0  0
   14.2721   17.5292    4.9463 C   0  0  0  0  0  0  0  0  0  0  0  0
   15.0207   16.9993    5.9806 N   0  0  0  0  0  0  0  0  0  0  0  0
   13.6032   16.9078    4.1386 O   0  0  0  0  0  0  0  0  0  0  0  0
  1  2  1  0  0  0
  2  9  1  0  0  0
  4 10  2  0  0  0
  4 13  1  0  0  0
 14 15  2  0  0  0
 16 17  2  0  0  0
 18 13  2  0  0  0
  5 11  2  0  0  0
  5 19  1  0  0  0
 21 19  1  0  0  0
 21 22  1  0  0  0
 22 23  1  0  0  0
 23 28  1  0  0  0
 24 28  1  0  0  0
 24 25  1  0  0  0
 25 26  1  0  0  0
 26 27  1  0  0  0
 27 28  1  0  0  0
  6  7  1  0  0  0
  6  3  2  0  0  0
  8  7  1  0  0  0
  9  3  1  0  0  0
  3 10  1  0  0  0
  4 11  1  0  0  0
 13 14  1  0  0  0
 15 16  1  0  0  0
 17 18  1  0  0  0
  5  6  1  0  0  0
 27 29  2  0  0  0
  7  2  2  0  0  0
  9 12  1  0  0  0
 19 20  1  0  0  0
M  END
> <minimizedAffinity>
-8.78457

$$$$
CHEMBL78377


 29 32  0  0  0  0  0  0  0  0999 V2000
   18.5029    6.2603    5.8524 C   0  0  0  0  0  0  0  0  0  0  0  0
   17.7195    7.4347    5.3886 C   0  0  0  0  0  0  0  0  0  0  0  0
   16.0539    8.4933    4.3186 C   0  0  0  0  0  0  0  0  0  0  0  0
   14.6130    9.9501    3.4435 C   0  0  0  0  0  0  0  0  0  0  0  0
   16.3506   10.7991    4.7813 C   0  0  0  0  0  0  0  0  0  0  0  0
   16.8021    9.4740    4.9479 C   0  0  0  0  0  0  0  0  0  0  0  0
   17.8829    8.7969    5.6199 C   0  0  0  0  0  0  0  0  0  0  0  0
   18.9682    9.4240    6.4245 C   0  0  0  0  0  0  0  0  0  0  0  0
   16.6101    7.2794    4.5958 N   0  0  0  0  0  0  0  0  0  0  0  0
   14.9636    8.6562    3.5603 N   0  0  0  0  0  0  0  0  0  0  0  0
   15.2480   10.9988    4.0148 N   0  0  0  0  0  0  0  0  0  0  0  0
   16.2362    6.4063    4.2547 H   0  0  0  0  0  0  0  0  0  0  0  0
   13.4301   10.2547    2.6030 C   0  0  0  0  0  0  0  0  0  0  0  0
   12.9315    9.3273    1.6665 C   0  0  0  0  0  0  0  0  0  0  0  0
   11.8134    9.6119    0.8746 C   0  0  0  0  0  0  0  0  0  0  0  0
   11.1639   10.8360    0.9997 C   0  0  0  0  0  0  0  0  0  0  0  0
   11.6306   11.7735    1.9153 C   0  0  0  0  0  0  0  0  0  0  0  0
   12.7486   11.4843    2.7055 C   0  0  0  0  0  0  0  0  0  0  0  0
   16.9796   11.8834    5.3529 N   0  0  0  0  0  0  0  0  0  0  0  0
   17.5352   11.7502    6.1865 H   0  0  0  0  0  0  0  0  0  0  0  0
   17.0336   13.1740    4.7024 C   0  0  0  0  0  0  0  0  0  0  0  0
   16.0463   14.1688    5.3128 C   0  0  0  0  0  0  0  0  0  0  0  0
   16.3149   15.6192    4.9177 C   0  0  0  0  0  0  0  0  0  0  0  0
   15.5133   17.0167    6.8748 C   0  0  0  0  0  0  0  0  0  0  0  0
   14.3875   18.0138    7.0726 C   0  0  0  0  0  0  0  0  0  0  0  0
   13.4614   17.8505    5.8743 C   0  0  0  0  0  0  0  0  0  0  0  0
   14.2462   17.0307    4.8842 C   0  0  0  0  0  0  0  0  0  0  0  0
   15.3866   16.5682    5.5140 N   0  0  0  0  0  0  0  0  0  0  0  0
   13.9027   16.7994    3.7377 O   0  0  0  0  0  0  0  0  0  0  0  0
  1  2  1  0  0  0
  2  9  1  0  0  0
  4 10  2  0  0  0
  4 13  1  0  0  0
 14 15  2  0  0  0
 16 17  2  0  0  0
 18 13  2  0  0  0
  5 11  2  0  0  0
  5 19  1  0  0  0
 21 19  1  0  0  0
 21 22  1  0  0  0
 22 23  1  0  0  0
 23 28  1  0  0  0
 24 28  1  0  0  0
 24 25  1  0  0  0
 25 26  1  0  0  0
 26 27  1  0  0  0
 27 28  1  0  0  0
  6  7  1  0  0  0
  6  3  2  0  0  0
  8  7  1  0  0  0
  9  3  1  0  0  0
  3 10  1  0  0  0
  4 11  1  0  0  0
 13 14  1  0  0  0
 15 16  1  0  0  0
 17 18  1  0  0  0
  5  6  1  0  0  0
 27 29  2  0  0  0
  7  2  2  0  0  0
  9 12  1  0  0  0
 19 20  1  0  0  0
M  END
> <minimizedAffinity>
-8.50260

$$$$
CHEMBL78377


 29 32  0  0  0  0  0  0  0  0999 V2000
   20.4838   13.3743    6.6192 C   0  0  0  0  0  0  0  0  0  0  0  0
   19.1788   13.3423    5.9090 C   0  0  0  0  0  0  0  0  0  0  0  0
   17.3889   12.3807    4.9544 C   0  0  0  0  0  0  0  0  0  0  0  0
   15.4677   11.8942    3.9363 C   0  0  0  0  0  0  0  0  0  0  0  0
   15.9845   14.1637    4.2709 C   0  0  0  0  0  0  0  0  0  0  0  0
   17.1882   13.7485    4.8761 C   0  0  0  0  0  0  0  0  0  0  0  0
   18.3458   14.3674    5.4720 C   0  0  0  0  0  0  0  0  0  0  0  0
   18.6070   15.8271    5.6121 C   0  0  0  0  0  0  0  0  0  0  0  0
   18.5793   12.1526    5.5796 N   0  0  0  0  0  0  0  0  0  0  0  0
   16.5834   11.4086    4.5110 N   0  0  0  0  0  0  0  0  0  0  0  0
   15.1462   13.2016    3.8074 N   0  0  0  0  0  0  0  0  0  0  0  0
   18.9423   11.2289    5.7629 H   0  0  0  0  0  0  0  0  0  0  0  0
   14.5095   10.9066    3.3840 C   0  0  0  0  0  0  0  0  0  0  0  0
   14.7982    9.5275    3.3674 C   0  0  0  0  0  0  0  0  0  0  0  0
   13.8938    8.5938    2.8493 C   0  0  0  0  0  0  0  0  0  0  0  0
   12.6735    9.0178    2.3326 C   0  0  0  0  0  0  0  0  0  0  0  0
   12.3575   10.3725    2.3345 C   0  0  0  0  0  0  0  0  0  0  0  0
   13.2647   11.3025    2.8541 C   0  0  0  0  0  0  0  0  0  0  0  0
   15.6345   15.4886    4.1283 N   0  0  0  0  0  0  0  0  0  0  0  0
   16.0583   16.0356    3.3918 H   0  0  0  0  0  0  0  0  0  0  0  0
   14.5435   16.0814    4.8700 C   0  0  0  0  0  0  0  0  0  0  0  0
   14.8772   16.2464    6.3527 C   0  0  0  0  0  0  0  0  0  0  0  0
   14.5652   17.6376    6.8997 C   0  0  0  0  0  0  0  0  0  0  0  0
   16.4388   19.1253    6.0615 C   0  0  0  0  0  0  0  0  0  0  0  0
   16.5288   20.2350    5.0313 C   0  0  0  0  0  0  0  0  0  0  0  0
   15.0937   20.6275    4.7047 C   0  0  0  0  0  0  0  0  0  0  0  0
   14.2467   19.5255    5.2850 C   0  0  0  0  0  0  0  0  0  0  0  0
   15.0590   18.7192    6.0604 N   0  0  0  0  0  0  0  0  0  0  0  0
   13.0461   19.4009    5.1146 O   0  0  0  0  0  0  0  0  0  0  0  0
  1  2  1  0  0  0
  2  9  1  0  0  0
  4 10  2  0  0  0
  4 13  1  0  0  0
 14 15  2  0  0  0
 16 17  2  0  0  0
 18 13  2  0  0  0
  5 11  2  0  0  0
  5 19  1  0  0  0
 21 19  1  0  0  0
 21 22  1  0  0  0
 22 23  1  0  0  0
 23 28  1  0  0  0
 24 28  1  0  0  0
 24 25  1  0  0  0
 25 26  1  0  0  0
 26 27  1  0  0  0
 27 28  1  0  0  0
  6  7  1  0  0  0
  6  3  2  0  0  0
  8  7  1  0  0  0
  9  3  1  0  0  0
  3 10  1  0  0  0
  4 11  1  0  0  0
 13 14  1  0  0  0
 15 16  1  0  0  0
 17 18  1  0  0  0
  5  6  1  0  0  0
 27 29  2  0  0  0
  7  2  2  0  0  0
  9 12  1  0  0  0
 19 20  1  0  0  0
M  END
> <minimizedAffinity>
-8.40523

$$$$
CHEMBL78377


 29 32  0  0  0  0  0  0  0  0999 V2000
   18.4833    4.4637    5.5864 C   0  0  0  0  0  0  0  0  0  0  0  0
   17.8992    5.7953    5.2800 C   0  0  0  0  0  0  0  0  0  0  0  0
   16.4006    7.2249    4.4137 C   0  0  0  0  0  0  0  0  0  0  0  0
   15.2014    8.9868    3.7641 C   0  0  0  0  0  0  0  0  0  0  0  0
   17.1180    9.3878    5.0664 C   0  0  0  0  0  0  0  0  0  0  0  0
   17.3363    7.9951    5.0836 C   0  0  0  0  0  0  0  0  0  0  0  0
   18.3094    7.0793    5.6244 C   0  0  0  0  0  0  0  0  0  0  0  0
   19.5222    7.4278    6.4159 C   0  0  0  0  0  0  0  0  0  0  0  0
   16.7462    5.9122    4.5448 N   0  0  0  0  0  0  0  0  0  0  0  0
   15.3239    7.6469    3.7408 N   0  0  0  0  0  0  0  0  0  0  0  0
   16.0353    9.8489    4.3894 N   0  0  0  0  0  0  0  0  0  0  0  0
   16.2101    5.1545    4.1486 H   0  0  0  0  0  0  0  0  0  0  0  0
   14.0550    9.5718    3.0280 C   0  0  0  0  0  0  0  0  0  0  0  0
   13.3621    8.8427    2.0410 C   0  0  0  0  0  0  0  0  0  0  0  0
   12.2780    9.3922    1.3474 C   0  0  0  0  0  0  0  0  0  0  0  0
   11.8585   10.6896    1.6244 C   0  0  0  0  0  0  0  0  0  0  0  0
   12.5210   11.4361    2.5934 C   0  0  0  0  0  0  0  0  0  0  0  0
   13.6041   10.8823    3.2849 C   0  0  0  0  0  0  0  0  0  0  0  0
   17.9522   10.2857    5.6956 N   0  0  0  0  0  0  0  0  0  0  0  0
   18.1579   10.1654    6.6777 H   0  0  0  0  0  0  0  0  0  0  0  0
   18.6983   11.2866    4.9652 C   0  0  0  0  0  0  0  0  0  0  0  0
   18.1792   12.6998    5.2302 C   0  0  0  0  0  0  0  0  0  0  0  0
   19.2101   13.7925    4.9560 C   0  0  0  0  0  0  0  0  0  0  0  0
   20.1423   13.6557    7.3094 C   0  0  0  0  0  0  0  0  0  0  0  0
   21.5414   13.6574    7.8954 C   0  0  0  0  0  0  0  0  0  0  0  0
   22.4690   14.1132    6.7764 C   0  0  0  0  0  0  0  0  0  0  0  0
   21.6382   14.0284    5.5229 C   0  0  0  0  0  0  0  0  0  0  0  0
   20.3269   13.7888    5.8892 N   0  0  0  0  0  0  0  0  0  0  0  0
   22.0620   14.1796    4.3899 O   0  0  0  0  0  0  0  0  0  0  0  0
  1  2  1  0  0  0
  2  9  1  0  0  0
  4 10  2  0  0  0
  4 13  1  0  0  0
 14 15  2  0  0  0
 16 17  2  0  0  0
 18 13  2  0  0  0
  5 11  2  0  0  0
  5 19  1  0  0  0
 21 19  1  0  0  0
 21 22  1  0  0  0
 22 23  1  0  0  0
 23 28  1  0  0  0
 24 28  1  0  0  0
 24 25  1  0  0  0
 25 26  1  0  0  0
 26 27  1  0  0  0
 27 28  1  0  0  0
  6  7  1  0  0  0
  6  3  2  0  0  0
  8  7  1  0  0  0
  9  3  1  0  0  0
  3 10  1  0  0  0
  4 11  1  0  0  0
 13 14  1  0  0  0
 15 16  1  0  0  0
 17 18  1  0  0  0
  5  6  1  0  0  0
 27 29  2  0  0  0
  7  2  2  0  0  0
  9 12  1  0  0  0
 19 20  1  0  0  0
M  END
> <minimizedAffinity>
-8.30908

$$$$
CHEMBL78377


 29 32  0  0  0  0  0  0  0  0999 V2000
   15.2116   19.7917    5.0068 C   0  0  0  0  0  0  0  0  0  0  0  0
   15.3527   18.3483    4.6828 C   0  0  0  0  0  0  0  0  0  0  0  0
   14.6520   16.3152    4.0382 C   0  0  0  0  0  0  0  0  0  0  0  0
   14.4335   14.1768    3.4521 C   0  0  0  0  0  0  0  0  0  0  0  0
   16.5873   14.9472    3.9975 C   0  0  0  0  0  0  0  0  0  0  0  0
   16.0176   16.2131    4.2433 C   0  0  0  0  0  0  0  0  0  0  0  0
   16.4656   17.5134    4.6753 C   0  0  0  0  0  0  0  0  0  0  0  0
   17.8566   17.9059    5.0355 C   0  0  0  0  0  0  0  0  0  0  0  0
   14.2696   17.5981    4.2986 N   0  0  0  0  0  0  0  0  0  0  0  0
   13.8085   15.3521    3.6494 N   0  0  0  0  0  0  0  0  0  0  0  0
   15.7576   13.9470    3.6042 N   0  0  0  0  0  0  0  0  0  0  0  0
   13.3181   17.9228    4.2106 H   0  0  0  0  0  0  0  0  0  0  0  0
   13.5924   13.0267    3.0419 C   0  0  0  0  0  0  0  0  0  0  0  0
   12.4363   13.2011    2.2552 C   0  0  0  0  0  0  0  0  0  0  0  0
   11.6431   12.1164    1.8647 C   0  0  0  0  0  0  0  0  0  0  0  0
   11.9874   10.8254    2.2529 C   0  0  0  0  0  0  0  0  0  0  0  0
   13.1229   10.6189    3.0295 C   0  0  0  0  0  0  0  0  0  0  0  0
   13.9134   11.7065    3.4172 C   0  0  0  0  0  0  0  0  0  0  0  0
   17.9324   14.6883    4.1449 N   0  0  0  0  0  0  0  0  0  0  0  0
   18.5480   14.8027    3.3516 H   0  0  0  0  0  0  0  0  0  0  0  0
   18.5325   14.4418    5.4376 C   0  0  0  0  0  0  0  0  0  0  0  0
   18.3096   13.0057    5.9119 C   0  0  0  0  0  0  0  0  0  0  0  0
   18.9502   11.9554    5.0073 C   0  0  0  0  0  0  0  0  0  0  0  0
   16.8585   10.5785    4.6136 C   0  0  0  0  0  0  0  0  0  0  0  0
   16.5336    9.0993    4.6986 C   0  0  0  0  0  0  0  0  0  0  0  0
   17.6950    8.4522    5.4419 C   0  0  0  0  0  0  0  0  0  0  0  0
   18.7798    9.4971    5.4549 C   0  0  0  0  0  0  0  0  0  0  0  0
   18.2412   10.6845    4.9954 N   0  0  0  0  0  0  0  0  0  0  0  0
   19.9226    9.3158    5.8384 O   0  0  0  0  0  0  0  0  0  0  0  0
  1  2  1  0  0  0
  2  9  1  0  0  0
  4 10  2  0  0  0
  4 13  1  0  0  0
 14 15  2  0  0  0
 16 17  2  0  0  0
 18 13  2  0  0  0
  5 11  2  0  0  0
  5 19  1  0  0  0
 21 19  1  0  0  0
 21 22  1  0  0  0
 22 23  1  0  0  0
 23 28  1  0  0  0
 24 28  1  0  0  0
 24 25  1  0  0  0
 25 26  1  0  0  0
 26 27  1  0  0  0
 27 28  1  0  0  0
  6  7  1  0  0  0
  6  3  2  0  0  0
  8  7  1  0  0  0
  9  3  1  0  0  0
  3 10  1  0  0  0
  4 11  1  0  0  0
 13 14  1  0  0  0
 15 16  1  0  0  0
 17 18  1  0  0  0
  5  6  1  0  0  0
 27 29  2  0  0  0
  7  2  2  0  0  0
  9 12  1  0  0  0
 19 20  1  0  0  0
M  END
> <minimizedAffinity>
-8.29809

$$$$
CHEMBL78377


 29 32  0  0  0  0  0  0  0  0999 V2000
   21.1779   14.6670    7.2703 C   0  0  0  0  0  0  0  0  0  0  0  0
   20.0235   14.2735    6.4213 C   0  0  0  0  0  0  0  0  0  0  0  0
   18.5063   12.8666    5.5504 C   0  0  0  0  0  0  0  0  0  0  0  0
   16.8353   11.8773    4.4580 C   0  0  0  0  0  0  0  0  0  0  0  0
   17.1121   14.1943    4.1676 C   0  0  0  0  0  0  0  0  0  0  0  0
   18.2193   14.1203    5.0371 C   0  0  0  0  0  0  0  0  0  0  0  0
   19.2046   15.0212    5.5810 C   0  0  0  0  0  0  0  0  0  0  0  0
   19.3258   16.4814    5.3130 C   0  0  0  0  0  0  0  0  0  0  0  0
   19.5828   12.9745    6.3807 N   0  0  0  0  0  0  0  0  0  0  0  0
   17.8668   11.7168    5.3072 N   0  0  0  0  0  0  0  0  0  0  0  0
   16.4431   13.0442    3.8978 N   0  0  0  0  0  0  0  0  0  0  0  0
   19.9770   12.1931    6.8832 H   0  0  0  0  0  0  0  0  0  0  0  0
   16.0661   10.6628    4.0947 C   0  0  0  0  0  0  0  0  0  0  0  0
   14.8132   10.7465    3.4552 C   0  0  0  0  0  0  0  0  0  0  0  0
   14.0873    9.6013    3.1089 C   0  0  0  0  0  0  0  0  0  0  0  0
   14.5983    8.3392    3.3948 C   0  0  0  0  0  0  0  0  0  0  0  0
   15.8328    8.2218    4.0251 C   0  0  0  0  0  0  0  0  0  0  0  0
   16.5553    9.3697    4.3691 C   0  0  0  0  0  0  0  0  0  0  0  0
   16.6931   15.3704    3.5850 N   0  0  0  0  0  0  0  0  0  0  0  0
   17.3811   16.0133    3.2182 H   0  0  0  0  0  0  0  0  0  0  0  0
   15.2995   15.6380    3.3054 C   0  0  0  0  0  0  0  0  0  0  0  0
   14.9842   17.1336    3.3272 C   0  0  0  0  0  0  0  0  0  0  0  0
   15.5070   17.8518    4.5694 C   0  0  0  0  0  0  0  0  0  0  0  0
   14.6486   16.8909    6.7525 C   0  0  0  0  0  0  0  0  0  0  0  0
   13.5309   17.2657    7.7069 C   0  0  0  0  0  0  0  0  0  0  0  0
   12.6513   18.2600    6.9599 C   0  0  0  0  0  0  0  0  0  0  0  0
   13.4628   18.6737    5.7604 C   0  0  0  0  0  0  0  0  0  0  0  0
   14.5699   17.8494    5.6829 N   0  0  0  0  0  0  0  0  0  0  0  0
   13.1622   19.5645    4.9845 O   0  0  0  0  0  0  0  0  0  0  0  0
  1  2  1  0  0  0
  2  9  1  0  0  0
  4 10  2  0  0  0
  4 13  1  0  0  0
 14 15  2  0  0  0
 16 17  2  0  0  0
 18 13  2  0  0  0
  5 11  2  0  0  0
  5 19  1  0  0  0
 21 19  1  0  0  0
 21 22  1  0  0  0
 22 23  1  0  0  0
 23 28  1  0  0  0
 24 28  1  0  0  0
 24 25  1  0  0  0
 25 26  1  0  0  0
 26 27  1  0  0  0
 27 28  1  0  0  0
  6  7  1  0  0  0
  6  3  2  0  0  0
  8  7  1  0  0  0
  9  3  1  0  0  0
  3 10  1  0  0  0
  4 11  1  0  0  0
 13 14  1  0  0  0
 15 16  1  0  0  0
 17 18  1  0  0  0
  5  6  1  0  0  0
 27 29  2  0  0  0
  7  2  2  0  0  0
  9 12  1  0  0  0
 19 20  1  0  0  0
M  END
> <minimizedAffinity>
-8.00556

$$$$
CHEMBL78377


 29 32  0  0  0  0  0  0  0  0999 V2000
   18.8533    4.9316    6.1034 C   0  0  0  0  0  0  0  0  0  0  0  0
   18.1759    6.1858    5.6836 C   0  0  0  0  0  0  0  0  0  0  0  0
   16.5954    7.4229    4.6779 C   0  0  0  0  0  0  0  0  0  0  0  0
   15.2812    9.0303    3.8695 C   0  0  0  0  0  0  0  0  0  0  0  0
   17.1228    9.6786    5.1802 C   0  0  0  0  0  0  0  0  0  0  0  0
   17.4487    8.3129    5.3081 C   0  0  0  0  0  0  0  0  0  0  0  0
   18.4746    7.5205    5.9386 C   0  0  0  0  0  0  0  0  0  0  0  0
   19.6335    8.0225    6.7283 C   0  0  0  0  0  0  0  0  0  0  0  0
   17.0386    6.1554    4.9160 N   0  0  0  0  0  0  0  0  0  0  0  0
   15.5085    7.7065    3.9508 N   0  0  0  0  0  0  0  0  0  0  0  0
   16.0270   10.0002    4.4460 N   0  0  0  0  0  0  0  0  0  0  0  0
   16.5748    5.3300    4.5667 H   0  0  0  0  0  0  0  0  0  0  0  0
   14.1139    9.4656    3.0654 C   0  0  0  0  0  0  0  0  0  0  0  0
   13.4265    8.5731    2.2189 C   0  0  0  0  0  0  0  0  0  0  0  0
   12.3228    8.9815    1.4617 C   0  0  0  0  0  0  0  0  0  0  0  0
   11.8777   10.2978    1.5323 C   0  0  0  0  0  0  0  0  0  0  0  0
   12.5340   11.2040    2.3588 C   0  0  0  0  0  0  0  0  0  0  0  0
   13.6368   10.7911    3.1146 C   0  0  0  0  0  0  0  0  0  0  0  0
   17.8662   10.6845    5.7578 N   0  0  0  0  0  0  0  0  0  0  0  0
   17.7425   10.8895    6.7397 H   0  0  0  0  0  0  0  0  0  0  0  0
   18.9546   11.3350    5.0621 C   0  0  0  0  0  0  0  0  0  0  0  0
   18.5994   12.7614    4.6422 C   0  0  0  0  0  0  0  0  0  0  0  0
   18.1134   13.6364    5.7955 C   0  0  0  0  0  0  0  0  0  0  0  0
   16.9633   15.6890    4.8520 C   0  0  0  0  0  0  0  0  0  0  0  0
   17.3344   17.1560    4.7475 C   0  0  0  0  0  0  0  0  0  0  0  0
   18.8246   17.2390    5.0522 C   0  0  0  0  0  0  0  0  0  0  0  0
   19.1766   15.8990    5.6429 C   0  0  0  0  0  0  0  0  0  0  0  0
   18.0919   15.0573    5.4813 N   0  0  0  0  0  0  0  0  0  0  0  0
   20.2506   15.6148    6.1447 O   0  0  0  0  0  0  0  0  0  0  0  0
  1  2  1  0  0  0
  2  9  1  0  0  0
  4 10  2  0  0  0
  4 13  1  0  0  0
 14 15  2  0  0  0
 16 17  2  0  0  0
 18 13  2  0  0  0
  5 11  2  0  0  0
  5 19  1  0  0  0
 21 19  1  0  0  0
 21 22  1  0  0  0
 22 23  1  0  0  0
 23 28  1  0  0  0
 24 28  1  0  0  0
 24 25  1  0  0  0
 25 26  1  0  0  0
 26 27  1  0  0  0
 27 28  1  0  0  0
  6  7  1  0  0  0
  6  3  2  0  0  0
  8  7  1  0  0  0
  9  3  1  0  0  0
  3 10  1  0  0  0
  4 11  1  0  0  0
 13 14  1  0  0  0
 15 16  1  0  0  0
 17 18  1  0  0  0
  5  6  1  0  0  0
 27 29  2  0  0  0
  7  2  2  0  0  0
  9 12  1  0  0  0
 19 20  1  0  0  0
M  END
> <minimizedAffinity>
-7.97456

$$$$
CHEMBL78377


 29 32  0  0  0  0  0  0  0  0999 V2000
   15.0928   19.6972    4.8164 C   0  0  0  0  0  0  0  0  0  0  0  0
   15.3115   18.2504    4.5574 C   0  0  0  0  0  0  0  0  0  0  0  0
   14.7238   16.1581    3.9945 C   0  0  0  0  0  0  0  0  0  0  0  0
   14.6222   13.9880    3.5000 C   0  0  0  0  0  0  0  0  0  0  0  0
   16.7264   14.8907    4.0357 C   0  0  0  0  0  0  0  0  0  0  0  0
   16.0899   16.1351    4.2194 C   0  0  0  0  0  0  0  0  0  0  0  0
   16.4654   17.4742    4.5992 C   0  0  0  0  0  0  0  0  0  0  0  0
   17.8295   17.9527    4.9578 C   0  0  0  0  0  0  0  0  0  0  0  0
   14.2732   17.4297    4.1941 N   0  0  0  0  0  0  0  0  0  0  0  0
   13.9357   15.1371    3.6385 N   0  0  0  0  0  0  0  0  0  0  0  0
   15.9541   13.8333    3.6771 N   0  0  0  0  0  0  0  0  0  0  0  0
   13.3078   17.7010    4.0811 H   0  0  0  0  0  0  0  0  0  0  0  0
   13.8462   12.7796    3.1309 C   0  0  0  0  0  0  0  0  0  0  0  0
   12.6448   12.8686    2.3999 C   0  0  0  0  0  0  0  0  0  0  0  0
   11.9128   11.7290    2.0482 C   0  0  0  0  0  0  0  0  0  0  0  0
   12.3657   10.4672    2.4205 C   0  0  0  0  0  0  0  0  0  0  0  0
   13.5485   10.3447    3.1423 C   0  0  0  0  0  0  0  0  0  0  0  0
   14.2774   11.4869    3.4914 C   0  0  0  0  0  0  0  0  0  0  0  0
   18.0809   14.7079    4.2097 N   0  0  0  0  0  0  0  0  0  0  0  0
   18.7166   14.9940    3.4781 H   0  0  0  0  0  0  0  0  0  0  0  0
   18.6465   14.2967    5.4757 C   0  0  0  0  0  0  0  0  0  0  0  0
   20.0958   14.7560    5.6357 C   0  0  0  0  0  0  0  0  0  0  0  0
   21.0716   13.6165    5.9210 C   0  0  0  0  0  0  0  0  0  0  0  0
   21.7060   13.5765    8.3750 C   0  0  0  0  0  0  0  0  0  0  0  0
   22.9365   13.9949    9.1570 C   0  0  0  0  0  0  0  0  0  0  0  0
   23.7733   14.8435    8.2083 C   0  0  0  0  0  0  0  0  0  0  0  0
   23.1795   14.6042    6.8450 C   0  0  0  0  0  0  0  0  0  0  0  0
   22.0002   13.9008    7.0049 N   0  0  0  0  0  0  0  0  0  0  0  0
   23.6557   14.9985    5.7944 O   0  0  0  0  0  0  0  0  0  0  0  0
  1  2  1  0  0  0
  2  9  1  0  0  0
  4 10  2  0  0  0
  4 13  1  0  0  0
 14 15  2  0  0  0
 16 17  2  0  0  0
 18 13  2  0  0  0
  5 11  2  0  0  0
  5 19  1  0  0  0
 21 19  1  0  0  0
 21 22  1  0  0  0
 22 23  1  0  0  0
 23 28  1  0  0  0
 24 28  1  0  0  0
 24 25  1  0  0  0
 25 26  1  0  0  0
 26 27  1  0  0  0
 27 28  1  0  0  0
  6  7  1  0  0  0
  6  3  2  0  0  0
  8  7  1  0  0  0
  9  3  1  0  0  0
  3 10  1  0  0  0
  4 11  1  0  0  0
 13 14  1  0  0  0
 15 16  1  0  0  0
 17 18  1  0  0  0
  5  6  1  0  0  0
 27 29  2  0  0  0
  7  2  2  0  0  0
  9 12  1  0  0  0
 19 20  1  0  0  0
M  END
> <minimizedAffinity>
-7.89787

$$$$
