CHEMBL4285366


 27 31  0  0  0  0  0  0  0  0999 V2000
   -3.7645   16.4888   -5.4918 C   0  0  0  0  0  0  0  0  0  0  0  0
   -2.4230   16.3979   -4.7420 C   0  0  0  0  0  0  0  0  0  0  0  0
   -2.3471   18.4290   -6.0491 C   0  0  0  0  0  0  0  0  0  0  0  0
   -3.7219   17.8291   -6.2035 C   0  0  0  0  0  0  0  0  0  0  0  0
   -4.9376   18.7421   -6.1425 C   0  0  0  0  0  0  0  0  0  0  0  0
   -4.5449   18.1263   -7.4480 C   0  0  0  0  0  0  0  0  0  0  0  0
   -0.2845   17.7752   -4.9094 C   0  0  0  0  0  0  0  0  0  0  0  0
   -1.6019   17.5091   -5.2139 N   0  0  0  0  0  0  0  0  0  0  0  0
    0.2888   18.8141   -5.2289 O   0  0  0  0  0  0  0  0  0  0  0  0
    0.4810   16.7782   -4.1368 C   0  0  0  0  0  0  0  0  0  0  0  0
    1.5973   17.2014   -3.4205 C   0  0  0  0  0  0  0  0  0  0  0  0
    2.3164   16.2420   -2.7344 C   0  0  0  0  0  0  0  0  0  0  0  0
    0.9300   14.5486   -3.4638 C   0  0  0  0  0  0  0  0  0  0  0  0
    0.1476   15.4271   -4.1881 C   0  0  0  0  0  0  0  0  0  0  0  0
    1.9998   14.9277   -2.7298 N   0  0  0  0  0  0  0  0  0  0  0  0
   -3.0997   15.0674   -7.4344 C   0  0  0  0  0  0  0  0  0  0  0  0
   -4.0562   15.3456   -6.3792 N   0  0  0  0  0  0  0  0  0  0  0  0
   -5.1331   14.4946   -6.1562 C   0  0  0  0  0  0  0  0  0  0  0  0
   -7.4673   14.2776   -5.9023 C   0  0  0  0  0  0  0  0  0  0  0  0
   -6.2796   12.4303   -5.7210 C   0  0  0  0  0  0  0  0  0  0  0  0
   -5.0728   13.0886   -5.9392 C   0  0  0  0  0  0  0  0  0  0  0  0
   -4.0730   12.0653   -5.8746 C   0  0  0  0  0  0  0  0  0  0  0  0
   -4.6915   10.8585   -5.6225 C   0  0  0  0  0  0  0  0  0  0  0  0
   -6.3844   15.0368   -6.1413 N   0  0  0  0  0  0  0  0  0  0  0  0
   -7.5082   12.9604   -5.6882 N   0  0  0  0  0  0  0  0  0  0  0  0
   -6.0339   11.0991   -5.5309 N   0  0  0  0  0  0  0  0  0  0  0  0
   -6.7575   10.4180   -5.3511 H   0  0  0  0  0  0  0  0  0  0  0  0
 16 17  1  0  0  0
  1 17  1  0  0  0
  1  2  1  0  0  0
  2  8  1  0  0  0
  3  8  1  0  0  0
  3  4  1  0  0  0
  4  5  1  0  0  0
  4  1  1  0  0  0
  5  6  1  0  0  0
  6  4  1  0  0  0
  7 10  1  0  0  0
 11 12  2  0  0  0
 13 15  2  0  0  0
 14 10  2  0  0  0
 19 24  2  0  0  0
 20 25  2  0  0  0
 21 22  1  0  0  0
 21 18  2  0  0  0
 23 26  1  0  0  0
 17 18  1  0  0  0
  8  7  1  0  0  0
 26 20  1  0  0  0
  7  9  2  0  0  0
 10 11  1  0  0  0
 12 15  1  0  0  0
 13 14  1  0  0  0
 18 24  1  0  0  0
 19 25  1  0  0  0
 20 21  1  0  0  0
 22 23  2  0  0  0
 26 27  1  0  0  0
M  END
> <minimizedAffinity>
-9.61479

$$$$
CHEMBL4285366


 27 31  0  0  0  0  0  0  0  0999 V2000
   -2.5166   15.9024   -6.0246 C   0  0  0  0  0  0  0  0  0  0  0  0
   -1.2051   16.3731   -5.3699 C   0  0  0  0  0  0  0  0  0  0  0  0
   -1.4498   14.0326   -4.8203 C   0  0  0  0  0  0  0  0  0  0  0  0
   -2.5712   14.4093   -5.7555 C   0  0  0  0  0  0  0  0  0  0  0  0
   -2.9375   13.4626   -6.8889 C   0  0  0  0  0  0  0  0  0  0  0  0
   -3.8742   13.6244   -5.7339 C   0  0  0  0  0  0  0  0  0  0  0  0
    0.3862   15.2319   -3.7377 C   0  0  0  0  0  0  0  0  0  0  0  0
   -0.7013   15.2504   -4.5841 N   0  0  0  0  0  0  0  0  0  0  0  0
    0.8326   14.2059   -3.2299 O   0  0  0  0  0  0  0  0  0  0  0  0
    1.0748   16.5020   -3.4386 C   0  0  0  0  0  0  0  0  0  0  0  0
    2.3531   16.4558   -2.8889 C   0  0  0  0  0  0  0  0  0  0  0  0
    2.9611   17.6586   -2.5859 C   0  0  0  0  0  0  0  0  0  0  0  0
    1.1272   18.8685   -3.2892 C   0  0  0  0  0  0  0  0  0  0  0  0
    0.4305   17.7229   -3.6216 C   0  0  0  0  0  0  0  0  0  0  0  0
    2.3816   18.8635   -2.7860 N   0  0  0  0  0  0  0  0  0  0  0  0
   -3.8219   16.9713   -4.1835 C   0  0  0  0  0  0  0  0  0  0  0  0
   -3.7224   16.6360   -5.5919 N   0  0  0  0  0  0  0  0  0  0  0  0
   -4.6726   17.0932   -6.4983 C   0  0  0  0  0  0  0  0  0  0  0  0
   -5.1636   18.5436   -8.2914 C   0  0  0  0  0  0  0  0  0  0  0  0
   -6.8152   17.2778   -7.5662 C   0  0  0  0  0  0  0  0  0  0  0  0
   -6.0309   16.6750   -6.5870 C   0  0  0  0  0  0  0  0  0  0  0  0
   -6.9032   15.7502   -5.9277 C   0  0  0  0  0  0  0  0  0  0  0  0
   -8.1506   15.8265   -6.5114 C   0  0  0  0  0  0  0  0  0  0  0  0
   -4.2892   18.0362   -7.4059 N   0  0  0  0  0  0  0  0  0  0  0  0
   -6.4484   18.2159   -8.4476 N   0  0  0  0  0  0  0  0  0  0  0  0
   -8.0796   16.7616   -7.5057 N   0  0  0  0  0  0  0  0  0  0  0  0
   -8.8295   17.0485   -8.1181 H   0  0  0  0  0  0  0  0  0  0  0  0
 16 17  1  0  0  0
  1 17  1  0  0  0
  1  2  1  0  0  0
  2  8  1  0  0  0
  3  8  1  0  0  0
  3  4  1  0  0  0
  4  5  1  0  0  0
  4  1  1  0  0  0
  5  6  1  0  0  0
  6  4  1  0  0  0
  7 10  1  0  0  0
 11 12  2  0  0  0
 13 15  2  0  0  0
 14 10  2  0  0  0
 19 24  2  0  0  0
 20 25  2  0  0  0
 21 22  1  0  0  0
 21 18  2  0  0  0
 23 26  1  0  0  0
 17 18  1  0  0  0
  8  7  1  0  0  0
 26 20  1  0  0  0
  7  9  2  0  0  0
 10 11  1  0  0  0
 12 15  1  0  0  0
 13 14  1  0  0  0
 18 24  1  0  0  0
 19 25  1  0  0  0
 20 21  1  0  0  0
 22 23  2  0  0  0
 26 27  1  0  0  0
M  END
> <minimizedAffinity>
-9.06337

$$$$
CHEMBL4285366


 27 31  0  0  0  0  0  0  0  0999 V2000
   -3.4281   17.9297   -5.6542 C   0  0  0  0  0  0  0  0  0  0  0  0
   -2.2218   17.3775   -4.8731 C   0  0  0  0  0  0  0  0  0  0  0  0
   -1.4511   19.3575   -6.0243 C   0  0  0  0  0  0  0  0  0  0  0  0
   -2.9344   19.2295   -6.2637 C   0  0  0  0  0  0  0  0  0  0  0  0
   -3.8075   20.4722   -6.1723 C   0  0  0  0  0  0  0  0  0  0  0  0
   -3.5589   19.8445   -7.5072 C   0  0  0  0  0  0  0  0  0  0  0  0
    0.2445   18.0222   -4.8741 C   0  0  0  0  0  0  0  0  0  0  0  0
   -1.0729   18.2016   -5.2370 N   0  0  0  0  0  0  0  0  0  0  0  0
    1.1279   18.8462   -5.0989 O   0  0  0  0  0  0  0  0  0  0  0  0
    0.6213   16.7906   -4.1543 C   0  0  0  0  0  0  0  0  0  0  0  0
    1.8180   16.7717   -3.4431 C   0  0  0  0  0  0  0  0  0  0  0  0
    2.1639   15.5951   -2.8075 C   0  0  0  0  0  0  0  0  0  0  0  0
    0.2745   14.5169   -3.5752 C   0  0  0  0  0  0  0  0  0  0  0  0
   -0.1589   15.6411   -4.2509 C   0  0  0  0  0  0  0  0  0  0  0  0
    1.4124   14.4720   -2.8471 N   0  0  0  0  0  0  0  0  0  0  0  0
   -3.1004   16.3363   -7.5489 C   0  0  0  0  0  0  0  0  0  0  0  0
   -4.0144   16.9915   -6.6318 N   0  0  0  0  0  0  0  0  0  0  0  0
   -5.3629   16.6527   -6.6119 C   0  0  0  0  0  0  0  0  0  0  0  0
   -7.0505   15.2931   -5.6828 C   0  0  0  0  0  0  0  0  0  0  0  0
   -7.6777   16.7134   -7.2466 C   0  0  0  0  0  0  0  0  0  0  0  0
   -6.3907   17.2132   -7.4225 C   0  0  0  0  0  0  0  0  0  0  0  0
   -6.5150   18.2134   -8.4399 C   0  0  0  0  0  0  0  0  0  0  0  0
   -7.8346   18.2791   -8.8360 C   0  0  0  0  0  0  0  0  0  0  0  0
   -5.7677   15.6903   -5.7345 N   0  0  0  0  0  0  0  0  0  0  0  0
   -8.0770   15.7571   -6.3995 N   0  0  0  0  0  0  0  0  0  0  0  0
   -8.5279   17.3589   -8.1006 N   0  0  0  0  0  0  0  0  0  0  0  0
   -9.5169   17.1632   -8.1575 H   0  0  0  0  0  0  0  0  0  0  0  0
 16 17  1  0  0  0
  1 17  1  0  0  0
  1  2  1  0  0  0
  2  8  1  0  0  0
  3  8  1  0  0  0
  3  4  1  0  0  0
  4  5  1  0  0  0
  4  1  1  0  0  0
  5  6  1  0  0  0
  6  4  1  0  0  0
  7 10  1  0  0  0
 11 12  2  0  0  0
 13 15  2  0  0  0
 14 10  2  0  0  0
 19 24  2  0  0  0
 20 25  2  0  0  0
 21 22  1  0  0  0
 21 18  2  0  0  0
 23 26  1  0  0  0
 17 18  1  0  0  0
  8  7  1  0  0  0
 26 20  1  0  0  0
  7  9  2  0  0  0
 10 11  1  0  0  0
 12 15  1  0  0  0
 13 14  1  0  0  0
 18 24  1  0  0  0
 19 25  1  0  0  0
 20 21  1  0  0  0
 22 23  2  0  0  0
 26 27  1  0  0  0
M  END
> <minimizedAffinity>
-9.05552

$$$$
CHEMBL4285366


 27 31  0  0  0  0  0  0  0  0999 V2000
   -3.3759   16.6758   -6.8806 C   0  0  0  0  0  0  0  0  0  0  0  0
   -4.6157   16.9354   -7.7556 C   0  0  0  0  0  0  0  0  0  0  0  0
   -3.7258   19.1015   -7.1593 C   0  0  0  0  0  0  0  0  0  0  0  0
   -2.7840   18.0506   -6.6278 C   0  0  0  0  0  0  0  0  0  0  0  0
   -1.2844   18.2547   -6.7855 C   0  0  0  0  0  0  0  0  0  0  0  0
   -1.9020   18.3585   -5.4270 C   0  0  0  0  0  0  0  0  0  0  0  0
   -5.8701   19.0776   -8.3350 C   0  0  0  0  0  0  0  0  0  0  0  0
   -4.8225   18.3806   -7.7730 N   0  0  0  0  0  0  0  0  0  0  0  0
   -5.8927   20.3019   -8.4370 O   0  0  0  0  0  0  0  0  0  0  0  0
   -7.0198   18.3227   -8.8693 C   0  0  0  0  0  0  0  0  0  0  0  0
   -7.4269   18.5634  -10.1787 C   0  0  0  0  0  0  0  0  0  0  0  0
   -8.5274   17.8691  -10.6424 C   0  0  0  0  0  0  0  0  0  0  0  0
   -8.8223   16.8017   -8.6187 C   0  0  0  0  0  0  0  0  0  0  0  0
   -7.7383   17.4486   -8.0576 C   0  0  0  0  0  0  0  0  0  0  0  0
   -9.2256   16.9844   -9.8957 N   0  0  0  0  0  0  0  0  0  0  0  0
   -4.6568   16.4052   -4.7540 C   0  0  0  0  0  0  0  0  0  0  0  0
   -3.6367   15.8982   -5.6530 N   0  0  0  0  0  0  0  0  0  0  0  0
   -3.0239   14.6736   -5.4113 C   0  0  0  0  0  0  0  0  0  0  0  0
   -3.0717   12.3375   -5.7281 C   0  0  0  0  0  0  0  0  0  0  0  0
   -1.4067   13.1358   -4.5254 C   0  0  0  0  0  0  0  0  0  0  0  0
   -1.8395   14.4526   -4.6524 C   0  0  0  0  0  0  0  0  0  0  0  0
   -0.8821   15.2314   -3.9261 C   0  0  0  0  0  0  0  0  0  0  0  0
    0.0674   14.3826   -3.3964 C   0  0  0  0  0  0  0  0  0  0  0  0
   -3.5943   13.5563   -5.9463 N   0  0  0  0  0  0  0  0  0  0  0  0
   -1.9724   12.0344   -5.0337 N   0  0  0  0  0  0  0  0  0  0  0  0
   -0.2677   13.1112   -3.7698 N   0  0  0  0  0  0  0  0  0  0  0  0
    0.2303   12.2639   -3.5382 H   0  0  0  0  0  0  0  0  0  0  0  0
 16 17  1  0  0  0
  1 17  1  0  0  0
  1  2  1  0  0  0
  2  8  1  0  0  0
  3  8  1  0  0  0
  3  4  1  0  0  0
  4  5  1  0  0  0
  4  1  1  0  0  0
  5  6  1  0  0  0
  6  4  1  0  0  0
  7 10  1  0  0  0
 11 12  2  0  0  0
 13 15  2  0  0  0
 14 10  2  0  0  0
 19 24  2  0  0  0
 20 25  2  0  0  0
 21 22  1  0  0  0
 21 18  2  0  0  0
 23 26  1  0  0  0
 17 18  1  0  0  0
  8  7  1  0  0  0
 26 20  1  0  0  0
  7  9  2  0  0  0
 10 11  1  0  0  0
 12 15  1  0  0  0
 13 14  1  0  0  0
 18 24  1  0  0  0
 19 25  1  0  0  0
 20 21  1  0  0  0
 22 23  2  0  0  0
 26 27  1  0  0  0
M  END
> <minimizedAffinity>
-8.82060

$$$$
CHEMBL4285366


 27 31  0  0  0  0  0  0  0  0999 V2000
   -3.3391   17.3199   -5.7265 C   0  0  0  0  0  0  0  0  0  0  0  0
   -2.0142   17.5313   -4.9713 C   0  0  0  0  0  0  0  0  0  0  0  0
   -2.3269   19.4740   -6.3741 C   0  0  0  0  0  0  0  0  0  0  0  0
   -3.5543   18.6074   -6.5015 C   0  0  0  0  0  0  0  0  0  0  0  0
   -4.9270   19.2638   -6.4860 C   0  0  0  0  0  0  0  0  0  0  0  0
   -4.4063   18.6775   -7.7599 C   0  0  0  0  0  0  0  0  0  0  0  0
   -0.1882   19.2951   -5.2015 C   0  0  0  0  0  0  0  0  0  0  0  0
   -1.4237   18.7597   -5.4948 N   0  0  0  0  0  0  0  0  0  0  0  0
    0.1720   20.4108   -5.5696 O   0  0  0  0  0  0  0  0  0  0  0  0
    0.7508   18.5064   -4.3809 C   0  0  0  0  0  0  0  0  0  0  0  0
    0.9052   17.1510   -4.6587 C   0  0  0  0  0  0  0  0  0  0  0  0
    1.7638   16.4285   -3.8531 C   0  0  0  0  0  0  0  0  0  0  0  0
    2.2463   18.2733   -2.5548 C   0  0  0  0  0  0  0  0  0  0  0  0
    1.4072   19.0824   -3.2962 C   0  0  0  0  0  0  0  0  0  0  0  0
    2.4472   16.9624   -2.8161 N   0  0  0  0  0  0  0  0  0  0  0  0
   -2.3699   15.9569   -7.5809 C   0  0  0  0  0  0  0  0  0  0  0  0
   -3.3895   16.1015   -6.5585 N   0  0  0  0  0  0  0  0  0  0  0  0
   -4.2954   15.0760   -6.3107 C   0  0  0  0  0  0  0  0  0  0  0  0
   -4.6381   12.7600   -6.0300 C   0  0  0  0  0  0  0  0  0  0  0  0
   -6.4237   14.0444   -5.8968 C   0  0  0  0  0  0  0  0  0  0  0  0
   -5.6997   15.2123   -6.1187 C   0  0  0  0  0  0  0  0  0  0  0  0
   -6.6694   16.2654   -6.0781 C   0  0  0  0  0  0  0  0  0  0  0  0
   -7.9116   15.7135   -5.8439 C   0  0  0  0  0  0  0  0  0  0  0  0
   -3.8148   13.8018   -6.2374 N   0  0  0  0  0  0  0  0  0  0  0  0
   -5.9594   12.7903   -5.8412 N   0  0  0  0  0  0  0  0  0  0  0  0
   -7.7440   14.3611   -5.7373 N   0  0  0  0  0  0  0  0  0  0  0  0
   -8.4658   13.6758   -5.5673 H   0  0  0  0  0  0  0  0  0  0  0  0
 16 17  1  0  0  0
  1 17  1  0  0  0
  1  2  1  0  0  0
  2  8  1  0  0  0
  3  8  1  0  0  0
  3  4  1  0  0  0
  4  5  1  0  0  0
  4  1  1  0  0  0
  5  6  1  0  0  0
  6  4  1  0  0  0
  7 10  1  0  0  0
 11 12  2  0  0  0
 13 15  2  0  0  0
 14 10  2  0  0  0
 19 24  2  0  0  0
 20 25  2  0  0  0
 21 22  1  0  0  0
 21 18  2  0  0  0
 23 26  1  0  0  0
 17 18  1  0  0  0
  8  7  1  0  0  0
 26 20  1  0  0  0
  7  9  2  0  0  0
 10 11  1  0  0  0
 12 15  1  0  0  0
 13 14  1  0  0  0
 18 24  1  0  0  0
 19 25  1  0  0  0
 20 21  1  0  0  0
 22 23  2  0  0  0
 26 27  1  0  0  0
M  END
> <minimizedAffinity>
-8.75996

$$$$
CHEMBL4285366


 27 31  0  0  0  0  0  0  0  0999 V2000
   -1.0559   16.9240   -5.5503 C   0  0  0  0  0  0  0  0  0  0  0  0
   -1.6122   18.1918   -6.2236 C   0  0  0  0  0  0  0  0  0  0  0  0
    0.0827   18.9250   -4.6649 C   0  0  0  0  0  0  0  0  0  0  0  0
    0.0795   17.4171   -4.6715 C   0  0  0  0  0  0  0  0  0  0  0  0
    1.4081   16.6755   -4.6879 C   0  0  0  0  0  0  0  0  0  0  0  0
    0.5673   16.6512   -3.4508 C   0  0  0  0  0  0  0  0  0  0  0  0
   -1.2413   20.6696   -5.7532 C   0  0  0  0  0  0  0  0  0  0  0  0
   -0.9780   19.3300   -5.5648 N   0  0  0  0  0  0  0  0  0  0  0  0
   -0.5584   21.5694   -5.2694 O   0  0  0  0  0  0  0  0  0  0  0  0
   -2.3862   21.0561   -6.5998 C   0  0  0  0  0  0  0  0  0  0  0  0
   -3.3766   21.8683   -6.0543 C   0  0  0  0  0  0  0  0  0  0  0  0
   -4.4548   22.1863   -6.8572 C   0  0  0  0  0  0  0  0  0  0  0  0
   -3.6354   20.9332   -8.6122 C   0  0  0  0  0  0  0  0  0  0  0  0
   -2.5204   20.5522   -7.8911 C   0  0  0  0  0  0  0  0  0  0  0  0
   -4.5994   21.7474   -8.1277 N   0  0  0  0  0  0  0  0  0  0  0  0
   -2.8162   16.7686   -3.7858 C   0  0  0  0  0  0  0  0  0  0  0  0
   -2.0602   16.1114   -4.8357 N   0  0  0  0  0  0  0  0  0  0  0  0
   -2.3610   14.8083   -5.2164 C   0  0  0  0  0  0  0  0  0  0  0  0
   -3.7882   13.3791   -6.4333 C   0  0  0  0  0  0  0  0  0  0  0  0
   -2.1494   12.4186   -5.3162 C   0  0  0  0  0  0  0  0  0  0  0  0
   -1.6660   13.6284   -4.8261 C   0  0  0  0  0  0  0  0  0  0  0  0
   -0.5323   13.2792   -4.0238 C   0  0  0  0  0  0  0  0  0  0  0  0
   -0.3762   11.9090   -4.0520 C   0  0  0  0  0  0  0  0  0  0  0  0
   -3.4234   14.6143   -6.0493 N   0  0  0  0  0  0  0  0  0  0  0  0
   -3.2017   12.2215   -6.1195 N   0  0  0  0  0  0  0  0  0  0  0  0
   -1.3692   11.4012   -4.8421 N   0  0  0  0  0  0  0  0  0  0  0  0
   -1.5277   10.4280   -5.0602 H   0  0  0  0  0  0  0  0  0  0  0  0
 16 17  1  0  0  0
  1 17  1  0  0  0
  1  2  1  0  0  0
  2  8  1  0  0  0
  3  8  1  0  0  0
  3  4  1  0  0  0
  4  5  1  0  0  0
  4  1  1  0  0  0
  5  6  1  0  0  0
  6  4  1  0  0  0
  7 10  1  0  0  0
 11 12  2  0  0  0
 13 15  2  0  0  0
 14 10  2  0  0  0
 19 24  2  0  0  0
 20 25  2  0  0  0
 21 22  1  0  0  0
 21 18  2  0  0  0
 23 26  1  0  0  0
 17 18  1  0  0  0
  8  7  1  0  0  0
 26 20  1  0  0  0
  7  9  2  0  0  0
 10 11  1  0  0  0
 12 15  1  0  0  0
 13 14  1  0  0  0
 18 24  1  0  0  0
 19 25  1  0  0  0
 20 21  1  0  0  0
 22 23  2  0  0  0
 26 27  1  0  0  0
M  END
> <minimizedAffinity>
-8.74520

$$$$
CHEMBL4285366


 27 31  0  0  0  0  0  0  0  0999 V2000
   -2.5561   15.9541   -6.1589 C   0  0  0  0  0  0  0  0  0  0  0  0
   -1.2531   16.3874   -5.4628 C   0  0  0  0  0  0  0  0  0  0  0  0
   -1.6649   14.1016   -4.7959 C   0  0  0  0  0  0  0  0  0  0  0  0
   -2.7135   14.4853   -5.8092 C   0  0  0  0  0  0  0  0  0  0  0  0
   -3.0790   13.4952   -6.9053 C   0  0  0  0  0  0  0  0  0  0  0  0
   -4.0608   13.7786   -5.8128 C   0  0  0  0  0  0  0  0  0  0  0  0
    0.1835   15.2565   -3.6864 C   0  0  0  0  0  0  0  0  0  0  0  0
   -0.8574   15.2866   -4.5892 N   0  0  0  0  0  0  0  0  0  0  0  0
    0.5417   14.2387   -3.0984 O   0  0  0  0  0  0  0  0  0  0  0  0
    0.9314   16.5008   -3.4232 C   0  0  0  0  0  0  0  0  0  0  0  0
    2.2170   16.4092   -2.8971 C   0  0  0  0  0  0  0  0  0  0  0  0
    2.8815   17.5898   -2.6273 C   0  0  0  0  0  0  0  0  0  0  0  0
    1.0873   18.8651   -3.3173 C   0  0  0  0  0  0  0  0  0  0  0  0
    0.3361   17.7449   -3.6158 C   0  0  0  0  0  0  0  0  0  0  0  0
    2.3501   18.8149   -2.8379 N   0  0  0  0  0  0  0  0  0  0  0  0
   -4.1649   16.8011   -4.4470 C   0  0  0  0  0  0  0  0  0  0  0  0
   -3.7358   16.7798   -5.8331 N   0  0  0  0  0  0  0  0  0  0  0  0
   -4.3485   17.5961   -6.7775 C   0  0  0  0  0  0  0  0  0  0  0  0
   -6.2161   17.9573   -8.1708 C   0  0  0  0  0  0  0  0  0  0  0  0
   -4.6024   19.4542   -8.2768 C   0  0  0  0  0  0  0  0  0  0  0  0
   -3.8219   18.7987   -7.3289 C   0  0  0  0  0  0  0  0  0  0  0  0
   -2.6452   19.6037   -7.1938 C   0  0  0  0  0  0  0  0  0  0  0  0
   -2.7496   20.6851   -8.0435 C   0  0  0  0  0  0  0  0  0  0  0  0
   -5.5797   17.2308   -7.2364 N   0  0  0  0  0  0  0  0  0  0  0  0
   -5.8032   19.0907   -8.7431 N   0  0  0  0  0  0  0  0  0  0  0  0
   -3.9461   20.5779   -8.6956 N   0  0  0  0  0  0  0  0  0  0  0  0
   -4.3155   21.2154   -9.3861 H   0  0  0  0  0  0  0  0  0  0  0  0
 16 17  1  0  0  0
  1 17  1  0  0  0
  1  2  1  0  0  0
  2  8  1  0  0  0
  3  8  1  0  0  0
  3  4  1  0  0  0
  4  5  1  0  0  0
  4  1  1  0  0  0
  5  6  1  0  0  0
  6  4  1  0  0  0
  7 10  1  0  0  0
 11 12  2  0  0  0
 13 15  2  0  0  0
 14 10  2  0  0  0
 19 24  2  0  0  0
 20 25  2  0  0  0
 21 22  1  0  0  0
 21 18  2  0  0  0
 23 26  1  0  0  0
 17 18  1  0  0  0
  8  7  1  0  0  0
 26 20  1  0  0  0
  7  9  2  0  0  0
 10 11  1  0  0  0
 12 15  1  0  0  0
 13 14  1  0  0  0
 18 24  1  0  0  0
 19 25  1  0  0  0
 20 21  1  0  0  0
 22 23  2  0  0  0
 26 27  1  0  0  0
M  END
> <minimizedAffinity>
-8.69407

$$$$
CHEMBL4285366


 27 31  0  0  0  0  0  0  0  0999 V2000
   -1.7031   16.8919   -5.8666 C   0  0  0  0  0  0  0  0  0  0  0  0
   -2.9507   17.2047   -6.7126 C   0  0  0  0  0  0  0  0  0  0  0  0
   -1.9561   19.3306   -6.1371 C   0  0  0  0  0  0  0  0  0  0  0  0
   -1.0476   18.2402   -5.6277 C   0  0  0  0  0  0  0  0  0  0  0  0
    0.4552   18.3807   -5.8202 C   0  0  0  0  0  0  0  0  0  0  0  0
   -0.1257   18.5092   -4.4477 C   0  0  0  0  0  0  0  0  0  0  0  0
   -4.1262   19.3988   -7.2627 C   0  0  0  0  0  0  0  0  0  0  0  0
   -3.0964   18.6574   -6.7251 N   0  0  0  0  0  0  0  0  0  0  0  0
   -4.0992   20.6231   -7.3641 O   0  0  0  0  0  0  0  0  0  0  0  0
   -5.3190   18.6939   -7.7701 C   0  0  0  0  0  0  0  0  0  0  0  0
   -5.8445   17.6449   -7.0208 C   0  0  0  0  0  0  0  0  0  0  0  0
   -6.9400   16.9792   -7.5356 C   0  0  0  0  0  0  0  0  0  0  0  0
   -6.9578   18.2872   -9.4357 C   0  0  0  0  0  0  0  0  0  0  0  0
   -5.8605   19.0122   -9.0130 C   0  0  0  0  0  0  0  0  0  0  0  0
   -7.5158   17.2857   -8.7198 N   0  0  0  0  0  0  0  0  0  0  0  0
   -2.9368   16.6792   -3.7059 C   0  0  0  0  0  0  0  0  0  0  0  0
   -1.9680   16.1249   -4.6333 N   0  0  0  0  0  0  0  0  0  0  0  0
   -1.4099   14.8710   -4.4102 C   0  0  0  0  0  0  0  0  0  0  0  0
   -1.7046   12.5323   -4.4690 C   0  0  0  0  0  0  0  0  0  0  0  0
    0.2474   13.2626   -3.7532 C   0  0  0  0  0  0  0  0  0  0  0  0
   -0.1029   14.6000   -3.9143 C   0  0  0  0  0  0  0  0  0  0  0  0
    1.0517   15.3400   -3.5016 C   0  0  0  0  0  0  0  0  0  0  0  0
    2.0309   14.4502   -3.1121 C   0  0  0  0  0  0  0  0  0  0  0  0
   -2.1703   13.7737   -4.6887 N   0  0  0  0  0  0  0  0  0  0  0  0
   -0.5011   12.1828   -4.0085 N   0  0  0  0  0  0  0  0  0  0  0  0
    1.5244   13.1906   -3.2705 N   0  0  0  0  0  0  0  0  0  0  0  0
    1.9971   12.3212   -3.0700 H   0  0  0  0  0  0  0  0  0  0  0  0
 16 17  1  0  0  0
  1 17  1  0  0  0
  1  2  1  0  0  0
  2  8  1  0  0  0
  3  8  1  0  0  0
  3  4  1  0  0  0
  4  5  1  0  0  0
  4  1  1  0  0  0
  5  6  1  0  0  0
  6  4  1  0  0  0
  7 10  1  0  0  0
 11 12  2  0  0  0
 13 15  2  0  0  0
 14 10  2  0  0  0
 19 24  2  0  0  0
 20 25  2  0  0  0
 21 22  1  0  0  0
 21 18  2  0  0  0
 23 26  1  0  0  0
 17 18  1  0  0  0
  8  7  1  0  0  0
 26 20  1  0  0  0
  7  9  2  0  0  0
 10 11  1  0  0  0
 12 15  1  0  0  0
 13 14  1  0  0  0
 18 24  1  0  0  0
 19 25  1  0  0  0
 20 21  1  0  0  0
 22 23  2  0  0  0
 26 27  1  0  0  0
M  END
> <minimizedAffinity>
-8.67423

$$$$
CHEMBL4285366


 27 31  0  0  0  0  0  0  0  0999 V2000
   -3.5189   16.7032   -5.1699 C   0  0  0  0  0  0  0  0  0  0  0  0
   -2.8978   18.1089   -5.0778 C   0  0  0  0  0  0  0  0  0  0  0  0
   -5.0040   18.3592   -6.2357 C   0  0  0  0  0  0  0  0  0  0  0  0
   -4.8849   16.9221   -5.7948 C   0  0  0  0  0  0  0  0  0  0  0  0
   -6.0985   16.2319   -5.1897 C   0  0  0  0  0  0  0  0  0  0  0  0
   -5.6276   15.8314   -6.5519 C   0  0  0  0  0  0  0  0  0  0  0  0
   -3.5696   20.3366   -6.1192 C   0  0  0  0  0  0  0  0  0  0  0  0
   -3.7719   19.0044   -5.8299 N   0  0  0  0  0  0  0  0  0  0  0  0
   -4.4247   21.0572   -6.6285 O   0  0  0  0  0  0  0  0  0  0  0  0
   -2.2699   20.9473   -5.7805 C   0  0  0  0  0  0  0  0  0  0  0  0
   -2.2529   22.2419   -5.2689 C   0  0  0  0  0  0  0  0  0  0  0  0
   -1.0210   22.8029   -4.9933 C   0  0  0  0  0  0  0  0  0  0  0  0
    0.1013   20.9269   -5.7300 C   0  0  0  0  0  0  0  0  0  0  0  0
   -1.0772   20.2785   -6.0446 C   0  0  0  0  0  0  0  0  0  0  0  0
    0.1551   22.1693   -5.2003 N   0  0  0  0  0  0  0  0  0  0  0  0
   -2.4130   15.9456   -7.2769 C   0  0  0  0  0  0  0  0  0  0  0  0
   -2.6889   15.7048   -5.8727 N   0  0  0  0  0  0  0  0  0  0  0  0
   -2.0955   14.6383   -5.2064 C   0  0  0  0  0  0  0  0  0  0  0  0
   -2.2211   12.3623   -4.6028 C   0  0  0  0  0  0  0  0  0  0  0  0
   -0.4719   13.4827   -3.8672 C   0  0  0  0  0  0  0  0  0  0  0  0
   -0.8769   14.6698   -4.4703 C   0  0  0  0  0  0  0  0  0  0  0  0
    0.1391   15.6226   -4.1376 C   0  0  0  0  0  0  0  0  0  0  0  0
    1.0943   14.9977   -3.3633 C   0  0  0  0  0  0  0  0  0  0  0  0
   -2.7234   13.4284   -5.2489 N   0  0  0  0  0  0  0  0  0  0  0  0
   -1.0931   12.2974   -3.8915 N   0  0  0  0  0  0  0  0  0  0  0  0
    0.7063   13.6964   -3.2076 N   0  0  0  0  0  0  0  0  0  0  0  0
    1.1943   12.9796   -2.6901 H   0  0  0  0  0  0  0  0  0  0  0  0
 16 17  1  0  0  0
  1 17  1  0  0  0
  1  2  1  0  0  0
  2  8  1  0  0  0
  3  8  1  0  0  0
  3  4  1  0  0  0
  4  5  1  0  0  0
  4  1  1  0  0  0
  5  6  1  0  0  0
  6  4  1  0  0  0
  7 10  1  0  0  0
 11 12  2  0  0  0
 13 15  2  0  0  0
 14 10  2  0  0  0
 19 24  2  0  0  0
 20 25  2  0  0  0
 21 22  1  0  0  0
 21 18  2  0  0  0
 23 26  1  0  0  0
 17 18  1  0  0  0
  8  7  1  0  0  0
 26 20  1  0  0  0
  7  9  2  0  0  0
 10 11  1  0  0  0
 12 15  1  0  0  0
 13 14  1  0  0  0
 18 24  1  0  0  0
 19 25  1  0  0  0
 20 21  1  0  0  0
 22 23  2  0  0  0
 26 27  1  0  0  0
M  END
> <minimizedAffinity>
-8.64459

$$$$
CHEMBL4293188


 29 33  0  0  0  0  0  0  0  0999 V2000
   -3.9831   16.7201   -5.4691 C   0  0  0  0  0  0  0  0  0  0  0  0
   -2.6831   16.5131   -4.6711 C   0  0  0  0  0  0  0  0  0  0  0  0
   -2.3544   18.4851   -6.0175 C   0  0  0  0  0  0  0  0  0  0  0  0
   -3.7868   18.0422   -6.1829 C   0  0  0  0  0  0  0  0  0  0  0  0
   -4.5831   18.4445   -7.4139 C   0  0  0  0  0  0  0  0  0  0  0  0
   -4.8858   19.0925   -6.0998 C   0  0  0  0  0  0  0  0  0  0  0  0
   -0.3773   17.6305   -4.8731 C   0  0  0  0  0  0  0  0  0  0  0  0
   -1.7179   17.4860   -5.1780 N   0  0  0  0  0  0  0  0  0  0  0  0
    0.2411   18.6644   -5.1298 O   0  0  0  0  0  0  0  0  0  0  0  0
    0.3872   16.5293   -4.2286 C   0  0  0  0  0  0  0  0  0  0  0  0
    1.4818   16.7752   -3.3934 C   0  0  0  0  0  0  0  0  0  0  0  0
    2.1368   15.7220   -2.7531 C   0  0  0  0  0  0  0  0  0  0  0  0
    1.6535   14.4208   -2.8819 C   0  0  0  0  0  0  0  0  0  0  0  0
    0.5112   14.1707   -3.6498 C   0  0  0  0  0  0  0  0  0  0  0  0
   -0.1111   15.2211   -4.3346 C   0  0  0  0  0  0  0  0  0  0  0  0
   -0.0402   12.8469   -3.6930 C   0  0  0  0  0  0  0  0  0  0  0  0
   -0.4808   11.7761   -3.7536 N   0  0  0  0  0  0  0  0  0  0  0  0
   -3.5335   15.3683   -7.5198 C   0  0  0  0  0  0  0  0  0  0  0  0
   -4.3551   15.5875   -6.3436 N   0  0  0  0  0  0  0  0  0  0  0  0
   -5.4677   14.7859   -6.1093 C   0  0  0  0  0  0  0  0  0  0  0  0
   -7.8093   14.6600   -5.8674 C   0  0  0  0  0  0  0  0  0  0  0  0
   -6.7048   12.7573   -5.7338 C   0  0  0  0  0  0  0  0  0  0  0  0
   -5.4691   13.3717   -5.9167 C   0  0  0  0  0  0  0  0  0  0  0  0
   -4.5136   12.3053   -5.8526 C   0  0  0  0  0  0  0  0  0  0  0  0
   -5.1861   11.1165   -5.6603 C   0  0  0  0  0  0  0  0  0  0  0  0
   -6.6933   15.3818   -6.0770 N   0  0  0  0  0  0  0  0  0  0  0  0
   -7.9099   13.3382   -5.6998 N   0  0  0  0  0  0  0  0  0  0  0  0
   -6.5189   11.4101   -5.5882 N   0  0  0  0  0  0  0  0  0  0  0  0
   -7.2730   10.7532   -5.4480 H   0  0  0  0  0  0  0  0  0  0  0  0
 18 19  1  0  0  0
  1 19  1  0  0  0
  1  2  1  0  0  0
  2  8  1  0  0  0
  3  8  1  0  0  0
  3  4  1  0  0  0
  4  5  1  0  0  0
  4  1  1  0  0  0
  5  6  1  0  0  0
  6  4  1  0  0  0
  7 10  1  0  0  0
 11 12  2  0  0  0
 13 14  2  0  0  0
 14 16  1  0  0  0
 15 10  2  0  0  0
 21 26  2  0  0  0
 22 27  2  0  0  0
 23 24  1  0  0  0
 23 20  2  0  0  0
 25 28  1  0  0  0
 19 20  1  0  0  0
  8  7  1  0  0  0
 28 22  1  0  0  0
  7  9  2  0  0  0
 10 11  1  0  0  0
 12 13  1  0  0  0
 14 15  1  0  0  0
 20 26  1  0  0  0
 21 27  1  0  0  0
 22 23  1  0  0  0
 24 25  2  0  0  0
 16 17  3  0  0  0
 28 29  1  0  0  0
M  END
> <minimizedAffinity>
-10.46547

$$$$
CHEMBL4293188


 29 33  0  0  0  0  0  0  0  0999 V2000
   -4.0155   16.9399   -5.4781 C   0  0  0  0  0  0  0  0  0  0  0  0
   -2.7235   17.1372   -4.6649 C   0  0  0  0  0  0  0  0  0  0  0  0
   -2.6796   18.7776   -6.4304 C   0  0  0  0  0  0  0  0  0  0  0  0
   -4.0154   18.0787   -6.4778 C   0  0  0  0  0  0  0  0  0  0  0  0
   -4.8296   18.0533   -7.7614 C   0  0  0  0  0  0  0  0  0  0  0  0
   -5.2725   18.9242   -6.6285 C   0  0  0  0  0  0  0  0  0  0  0  0
   -0.6249   18.5440   -5.1372 C   0  0  0  0  0  0  0  0  0  0  0  0
   -1.9145   18.1148   -5.3895 N   0  0  0  0  0  0  0  0  0  0  0  0
   -0.1753   19.5799   -5.6293 O   0  0  0  0  0  0  0  0  0  0  0  0
    0.2888   17.7600   -4.2637 C   0  0  0  0  0  0  0  0  0  0  0  0
    0.3099   16.3616   -4.2765 C   0  0  0  0  0  0  0  0  0  0  0  0
    1.2248   15.6582   -3.4913 C   0  0  0  0  0  0  0  0  0  0  0  0
    2.1782   16.3498   -2.7456 C   0  0  0  0  0  0  0  0  0  0  0  0
    2.2201   17.7475   -2.7861 C   0  0  0  0  0  0  0  0  0  0  0  0
    1.2669   18.4514   -3.5314 C   0  0  0  0  0  0  0  0  0  0  0  0
    3.2678   18.4472   -2.0996 C   0  0  0  0  0  0  0  0  0  0  0  0
    4.0967   19.0222   -1.5281 N   0  0  0  0  0  0  0  0  0  0  0  0
   -3.0636   15.0868   -6.8546 C   0  0  0  0  0  0  0  0  0  0  0  0
   -4.1724   15.5926   -6.0664 N   0  0  0  0  0  0  0  0  0  0  0  0
   -5.3370   14.8427   -5.9371 C   0  0  0  0  0  0  0  0  0  0  0  0
   -7.6905   14.8369   -5.8006 C   0  0  0  0  0  0  0  0  0  0  0  0
   -6.7000   12.8683   -5.7621 C   0  0  0  0  0  0  0  0  0  0  0  0
   -5.4252   13.4209   -5.8491 C   0  0  0  0  0  0  0  0  0  0  0  0
   -4.5340   12.2987   -5.8245 C   0  0  0  0  0  0  0  0  0  0  0  0
   -5.2792   11.1405   -5.7475 C   0  0  0  0  0  0  0  0  0  0  0  0
   -6.5279   15.5054   -5.9110 N   0  0  0  0  0  0  0  0  0  0  0  0
   -7.8714   13.5147   -5.7347 N   0  0  0  0  0  0  0  0  0  0  0  0
   -6.5956   11.5056   -5.7084 N   0  0  0  0  0  0  0  0  0  0  0  0
   -7.3904   10.8856   -5.6475 H   0  0  0  0  0  0  0  0  0  0  0  0
 18 19  1  0  0  0
  1 19  1  0  0  0
  1  2  1  0  0  0
  2  8  1  0  0  0
  3  8  1  0  0  0
  3  4  1  0  0  0
  4  5  1  0  0  0
  4  1  1  0  0  0
  5  6  1  0  0  0
  6  4  1  0  0  0
  7 10  1  0  0  0
 11 12  2  0  0  0
 13 14  2  0  0  0
 14 16  1  0  0  0
 15 10  2  0  0  0
 21 26  2  0  0  0
 22 27  2  0  0  0
 23 24  1  0  0  0
 23 20  2  0  0  0
 25 28  1  0  0  0
 19 20  1  0  0  0
  8  7  1  0  0  0
 28 22  1  0  0  0
  7  9  2  0  0  0
 10 11  1  0  0  0
 12 13  1  0  0  0
 14 15  1  0  0  0
 20 26  1  0  0  0
 21 27  1  0  0  0
 22 23  1  0  0  0
 24 25  2  0  0  0
 16 17  3  0  0  0
 28 29  1  0  0  0
M  END
> <minimizedAffinity>
-10.04010

$$$$
CHEMBL4293188


 29 33  0  0  0  0  0  0  0  0999 V2000
   -3.3890   17.9817   -5.6076 C   0  0  0  0  0  0  0  0  0  0  0  0
   -2.1982   17.4761   -4.7734 C   0  0  0  0  0  0  0  0  0  0  0  0
   -1.4072   19.3892   -6.0079 C   0  0  0  0  0  0  0  0  0  0  0  0
   -2.8910   19.2617   -6.2477 C   0  0  0  0  0  0  0  0  0  0  0  0
   -3.5291   19.8707   -7.4859 C   0  0  0  0  0  0  0  0  0  0  0  0
   -3.7520   20.5137   -6.1536 C   0  0  0  0  0  0  0  0  0  0  0  0
    0.2955   18.0956   -4.8349 C   0  0  0  0  0  0  0  0  0  0  0  0
   -1.0304   18.2462   -5.1957 N   0  0  0  0  0  0  0  0  0  0  0  0
    1.1254   18.9875   -5.0173 O   0  0  0  0  0  0  0  0  0  0  0  0
    0.7854   16.8341   -4.2176 C   0  0  0  0  0  0  0  0  0  0  0  0
    1.8938   16.8062   -3.3651 C   0  0  0  0  0  0  0  0  0  0  0  0
    2.2877   15.6160   -2.7516 C   0  0  0  0  0  0  0  0  0  0  0  0
    1.5291   14.4594   -2.9250 C   0  0  0  0  0  0  0  0  0  0  0  0
    0.3722   14.4919   -3.7109 C   0  0  0  0  0  0  0  0  0  0  0  0
    0.0102   15.6734   -4.3687 C   0  0  0  0  0  0  0  0  0  0  0  0
   -0.4593   13.3260   -3.8002 C   0  0  0  0  0  0  0  0  0  0  0  0
   -1.1328   12.3834   -3.8462 N   0  0  0  0  0  0  0  0  0  0  0  0
   -3.0286   16.4133   -7.5168 C   0  0  0  0  0  0  0  0  0  0  0  0
   -3.9460   16.9880   -6.5500 N   0  0  0  0  0  0  0  0  0  0  0  0
   -5.2929   16.6404   -6.5727 C   0  0  0  0  0  0  0  0  0  0  0  0
   -7.0123   15.2964   -5.6810 C   0  0  0  0  0  0  0  0  0  0  0  0
   -7.6037   16.7461   -7.2324 C   0  0  0  0  0  0  0  0  0  0  0  0
   -6.3045   17.2180   -7.3973 C   0  0  0  0  0  0  0  0  0  0  0  0
   -6.4015   18.2162   -8.4212 C   0  0  0  0  0  0  0  0  0  0  0  0
   -7.7196   18.3250   -8.8129 C   0  0  0  0  0  0  0  0  0  0  0  0
   -5.7199   15.6691   -5.7168 N   0  0  0  0  0  0  0  0  0  0  0  0
   -8.0272   15.7922   -6.3949 N   0  0  0  0  0  0  0  0  0  0  0  0
   -8.4374   17.4215   -8.0807 N   0  0  0  0  0  0  0  0  0  0  0  0
   -9.4319   17.2556   -8.1374 H   0  0  0  0  0  0  0  0  0  0  0  0
 18 19  1  0  0  0
  1 19  1  0  0  0
  1  2  1  0  0  0
  2  8  1  0  0  0
  3  8  1  0  0  0
  3  4  1  0  0  0
  4  5  1  0  0  0
  4  1  1  0  0  0
  5  6  1  0  0  0
  6  4  1  0  0  0
  7 10  1  0  0  0
 11 12  2  0  0  0
 13 14  2  0  0  0
 14 16  1  0  0  0
 15 10  2  0  0  0
 21 26  2  0  0  0
 22 27  2  0  0  0
 23 24  1  0  0  0
 23 20  2  0  0  0
 25 28  1  0  0  0
 19 20  1  0  0  0
  8  7  1  0  0  0
 28 22  1  0  0  0
  7  9  2  0  0  0
 10 11  1  0  0  0
 12 13  1  0  0  0
 14 15  1  0  0  0
 20 26  1  0  0  0
 21 27  1  0  0  0
 22 23  1  0  0  0
 24 25  2  0  0  0
 16 17  3  0  0  0
 28 29  1  0  0  0
M  END
> <minimizedAffinity>
-10.02172

$$$$
CHEMBL4293188


 29 33  0  0  0  0  0  0  0  0999 V2000
   -3.8302   18.9524   -6.1592 C   0  0  0  0  0  0  0  0  0  0  0  0
   -2.7441   18.2927   -5.2904 C   0  0  0  0  0  0  0  0  0  0  0  0
   -1.6141   19.8708   -6.7195 C   0  0  0  0  0  0  0  0  0  0  0  0
   -3.0989   20.0327   -6.9300 C   0  0  0  0  0  0  0  0  0  0  0  0
   -3.6357   20.6390   -8.2167 C   0  0  0  0  0  0  0  0  0  0  0  0
   -3.6799   21.4397   -6.9537 C   0  0  0  0  0  0  0  0  0  0  0  0
   -0.1794   18.3701   -5.4395 C   0  0  0  0  0  0  0  0  0  0  0  0
   -1.4562   18.7581   -5.8001 N   0  0  0  0  0  0  0  0  0  0  0  0
    0.8106   19.0477   -5.7193 O   0  0  0  0  0  0  0  0  0  0  0  0
    0.0586   17.0998   -4.7032 C   0  0  0  0  0  0  0  0  0  0  0  0
    0.9914   17.0067   -3.6652 C   0  0  0  0  0  0  0  0  0  0  0  0
    1.1436   15.8164   -2.9523 C   0  0  0  0  0  0  0  0  0  0  0  0
    0.3090   14.7327   -3.2210 C   0  0  0  0  0  0  0  0  0  0  0  0
   -0.6825   14.8385   -4.2023 C   0  0  0  0  0  0  0  0  0  0  0  0
   -0.7966   16.0147   -4.9527 C   0  0  0  0  0  0  0  0  0  0  0  0
   -1.6040   13.7570   -4.4009 C   0  0  0  0  0  0  0  0  0  0  0  0
   -2.3304   12.8702   -4.5749 N   0  0  0  0  0  0  0  0  0  0  0  0
   -5.8389   18.5125   -7.5757 C   0  0  0  0  0  0  0  0  0  0  0  0
   -4.6091   18.0103   -6.9909 N   0  0  0  0  0  0  0  0  0  0  0  0
   -4.2381   16.6826   -7.1775 C   0  0  0  0  0  0  0  0  0  0  0  0
   -2.7069   15.1633   -8.1286 C   0  0  0  0  0  0  0  0  0  0  0  0
   -4.3343   14.2924   -6.9240 C   0  0  0  0  0  0  0  0  0  0  0  0
   -4.8973   15.5344   -6.6443 C   0  0  0  0  0  0  0  0  0  0  0  0
   -6.0499   15.2452   -5.8430 C   0  0  0  0  0  0  0  0  0  0  0  0
   -6.1292   13.8812   -5.6539 C   0  0  0  0  0  0  0  0  0  0  0  0
   -3.1254   16.4253   -7.9217 N   0  0  0  0  0  0  0  0  0  0  0  0
   -3.2434   14.0349   -7.6550 N   0  0  0  0  0  0  0  0  0  0  0  0
   -5.0783   13.3164   -6.3204 N   0  0  0  0  0  0  0  0  0  0  0  0
   -4.8609   12.3317   -6.3768 H   0  0  0  0  0  0  0  0  0  0  0  0
 18 19  1  0  0  0
  1 19  1  0  0  0
  1  2  1  0  0  0
  2  8  1  0  0  0
  3  8  1  0  0  0
  3  4  1  0  0  0
  4  5  1  0  0  0
  4  1  1  0  0  0
  5  6  1  0  0  0
  6  4  1  0  0  0
  7 10  1  0  0  0
 11 12  2  0  0  0
 13 14  2  0  0  0
 14 16  1  0  0  0
 15 10  2  0  0  0
 21 26  2  0  0  0
 22 27  2  0  0  0
 23 24  1  0  0  0
 23 20  2  0  0  0
 25 28  1  0  0  0
 19 20  1  0  0  0
  8  7  1  0  0  0
 28 22  1  0  0  0
  7  9  2  0  0  0
 10 11  1  0  0  0
 12 13  1  0  0  0
 14 15  1  0  0  0
 20 26  1  0  0  0
 21 27  1  0  0  0
 22 23  1  0  0  0
 24 25  2  0  0  0
 16 17  3  0  0  0
 28 29  1  0  0  0
M  END
> <minimizedAffinity>
-9.72723

$$$$
CHEMBL4293188


 29 33  0  0  0  0  0  0  0  0999 V2000
   -2.8667   16.6939   -6.6547 C   0  0  0  0  0  0  0  0  0  0  0  0
   -4.0600   16.8953   -7.6060 C   0  0  0  0  0  0  0  0  0  0  0  0
   -3.2631   19.0960   -7.0302 C   0  0  0  0  0  0  0  0  0  0  0  0
   -2.3107   18.0868   -6.4389 C   0  0  0  0  0  0  0  0  0  0  0  0
   -1.4346   18.4536   -5.2518 C   0  0  0  0  0  0  0  0  0  0  0  0
   -0.8147   18.3149   -6.6063 C   0  0  0  0  0  0  0  0  0  0  0  0
   -5.3749   19.0086   -8.2472 C   0  0  0  0  0  0  0  0  0  0  0  0
   -4.3366   18.3298   -7.6373 N   0  0  0  0  0  0  0  0  0  0  0  0
   -5.3260   20.2216   -8.4564 O   0  0  0  0  0  0  0  0  0  0  0  0
   -6.6131   18.3005   -8.6690 C   0  0  0  0  0  0  0  0  0  0  0  0
   -7.3179   17.4577   -7.8036 C   0  0  0  0  0  0  0  0  0  0  0  0
   -8.5115   16.8595   -8.2109 C   0  0  0  0  0  0  0  0  0  0  0  0
   -9.0500   17.1614   -9.4608 C   0  0  0  0  0  0  0  0  0  0  0  0
   -8.3966   18.0653  -10.3053 C   0  0  0  0  0  0  0  0  0  0  0  0
   -7.1722   18.6214   -9.9162 C   0  0  0  0  0  0  0  0  0  0  0  0
   -9.0090   18.4503  -11.5443 C   0  0  0  0  0  0  0  0  0  0  0  0
   -9.5122   18.7367  -12.5488 N   0  0  0  0  0  0  0  0  0  0  0  0
   -4.1321   16.5659   -4.5059 C   0  0  0  0  0  0  0  0  0  0  0  0
   -3.1852   15.9500   -5.4172 N   0  0  0  0  0  0  0  0  0  0  0  0
   -2.5805   14.7419   -5.0851 C   0  0  0  0  0  0  0  0  0  0  0  0
   -2.6547   12.3881   -5.1933 C   0  0  0  0  0  0  0  0  0  0  0  0
   -0.9015   13.2701   -4.1900 C   0  0  0  0  0  0  0  0  0  0  0  0
   -1.3475   14.5741   -4.3861 C   0  0  0  0  0  0  0  0  0  0  0  0
   -0.3467   15.4016   -3.7796 C   0  0  0  0  0  0  0  0  0  0  0  0
    0.6500   14.5945   -3.2720 C   0  0  0  0  0  0  0  0  0  0  0  0
   -3.1949   13.5884   -5.4727 N   0  0  0  0  0  0  0  0  0  0  0  0
   -1.5017   12.1351   -4.5674 N   0  0  0  0  0  0  0  0  0  0  0  0
    0.2953   13.2999   -3.5287 N   0  0  0  0  0  0  0  0  0  0  0  0
    0.8171   12.4722   -3.2786 H   0  0  0  0  0  0  0  0  0  0  0  0
 18 19  1  0  0  0
  1 19  1  0  0  0
  1  2  1  0  0  0
  2  8  1  0  0  0
  3  8  1  0  0  0
  3  4  1  0  0  0
  4  5  1  0  0  0
  4  1  1  0  0  0
  5  6  1  0  0  0
  6  4  1  0  0  0
  7 10  1  0  0  0
 11 12  2  0  0  0
 13 14  2  0  0  0
 14 16  1  0  0  0
 15 10  2  0  0  0
 21 26  2  0  0  0
 22 27  2  0  0  0
 23 24  1  0  0  0
 23 20  2  0  0  0
 25 28  1  0  0  0
 19 20  1  0  0  0
  8  7  1  0  0  0
 28 22  1  0  0  0
  7  9  2  0  0  0
 10 11  1  0  0  0
 12 13  1  0  0  0
 14 15  1  0  0  0
 20 26  1  0  0  0
 21 27  1  0  0  0
 22 23  1  0  0  0
 24 25  2  0  0  0
 16 17  3  0  0  0
 28 29  1  0  0  0
M  END
> <minimizedAffinity>
-9.42711

$$$$
CHEMBL4293188


 29 33  0  0  0  0  0  0  0  0999 V2000
   -1.4657   16.8673   -5.7509 C   0  0  0  0  0  0  0  0  0  0  0  0
   -2.6417   17.2426   -6.6705 C   0  0  0  0  0  0  0  0  0  0  0  0
   -1.6984   19.3162   -5.8829 C   0  0  0  0  0  0  0  0  0  0  0  0
   -0.8170   18.1912   -5.4006 C   0  0  0  0  0  0  0  0  0  0  0  0
    0.0807   18.3779   -4.1878 C   0  0  0  0  0  0  0  0  0  0  0  0
    0.6911   18.3337   -5.5530 C   0  0  0  0  0  0  0  0  0  0  0  0
   -3.8101   19.4930   -7.0905 C   0  0  0  0  0  0  0  0  0  0  0  0
   -2.8207   18.6884   -6.5572 N   0  0  0  0  0  0  0  0  0  0  0  0
   -3.6792   20.7147   -7.1781 O   0  0  0  0  0  0  0  0  0  0  0  0
   -5.0929   18.9155   -7.5737 C   0  0  0  0  0  0  0  0  0  0  0  0
   -5.6247   19.2335   -8.8275 C   0  0  0  0  0  0  0  0  0  0  0  0
   -6.7975   18.6241   -9.2765 C   0  0  0  0  0  0  0  0  0  0  0  0
   -7.4057   17.6336   -8.5068 C   0  0  0  0  0  0  0  0  0  0  0  0
   -6.8398   17.2484   -7.2867 C   0  0  0  0  0  0  0  0  0  0  0  0
   -5.6944   17.8996   -6.8139 C   0  0  0  0  0  0  0  0  0  0  0  0
   -7.4121   16.1578   -6.5509 C   0  0  0  0  0  0  0  0  0  0  0  0
   -7.8848   15.2671   -5.9784 N   0  0  0  0  0  0  0  0  0  0  0  0
   -2.8027   16.5791   -3.6617 C   0  0  0  0  0  0  0  0  0  0  0  0
   -1.8349   16.0269   -4.5918 N   0  0  0  0  0  0  0  0  0  0  0  0
   -1.2583   14.7851   -4.3448 C   0  0  0  0  0  0  0  0  0  0  0  0
   -1.4813   12.4398   -4.4296 C   0  0  0  0  0  0  0  0  0  0  0  0
    0.4460   13.2168   -3.6949 C   0  0  0  0  0  0  0  0  0  0  0  0
    0.0513   14.5449   -3.8308 C   0  0  0  0  0  0  0  0  0  0  0  0
    1.1748   15.3119   -3.3796 C   0  0  0  0  0  0  0  0  0  0  0  0
    2.1869   14.4475   -3.0176 C   0  0  0  0  0  0  0  0  0  0  0  0
   -1.9870   13.6699   -4.6338 N   0  0  0  0  0  0  0  0  0  0  0  0
   -0.2661   12.1192   -3.9759 N   0  0  0  0  0  0  0  0  0  0  0  0
    1.7257   13.1761   -3.2139 N   0  0  0  0  0  0  0  0  0  0  0  0
    2.2302   12.3191   -3.0379 H   0  0  0  0  0  0  0  0  0  0  0  0
 18 19  1  0  0  0
  1 19  1  0  0  0
  1  2  1  0  0  0
  2  8  1  0  0  0
  3  8  1  0  0  0
  3  4  1  0  0  0
  4  5  1  0  0  0
  4  1  1  0  0  0
  5  6  1  0  0  0
  6  4  1  0  0  0
  7 10  1  0  0  0
 11 12  2  0  0  0
 13 14  2  0  0  0
 14 16  1  0  0  0
 15 10  2  0  0  0
 21 26  2  0  0  0
 22 27  2  0  0  0
 23 24  1  0  0  0
 23 20  2  0  0  0
 25 28  1  0  0  0
 19 20  1  0  0  0
  8  7  1  0  0  0
 28 22  1  0  0  0
  7  9  2  0  0  0
 10 11  1  0  0  0
 12 13  1  0  0  0
 14 15  1  0  0  0
 20 26  1  0  0  0
 21 27  1  0  0  0
 22 23  1  0  0  0
 24 25  2  0  0  0
 16 17  3  0  0  0
 28 29  1  0  0  0
M  END
> <minimizedAffinity>
-9.23222

$$$$
CHEMBL4293188


 29 33  0  0  0  0  0  0  0  0999 V2000
   -2.5684   15.8275   -6.0543 C   0  0  0  0  0  0  0  0  0  0  0  0
   -1.2062   16.2936   -5.5094 C   0  0  0  0  0  0  0  0  0  0  0  0
   -1.5120   14.0285   -4.7444 C   0  0  0  0  0  0  0  0  0  0  0  0
   -2.6501   14.3624   -5.6762 C   0  0  0  0  0  0  0  0  0  0  0  0
   -3.9630   13.5999   -5.5975 C   0  0  0  0  0  0  0  0  0  0  0  0
   -3.0357   13.3484   -6.7443 C   0  0  0  0  0  0  0  0  0  0  0  0
    0.3794   15.2341   -3.7862 C   0  0  0  0  0  0  0  0  0  0  0  0
   -0.7311   15.2451   -4.6094 N   0  0  0  0  0  0  0  0  0  0  0  0
    0.8323   14.1888   -3.3176 O   0  0  0  0  0  0  0  0  0  0  0  0
    1.0740   16.4962   -3.4160 C   0  0  0  0  0  0  0  0  0  0  0  0
    2.2891   16.4993   -2.7234 C   0  0  0  0  0  0  0  0  0  0  0  0
    2.9463   17.6996   -2.4485 C   0  0  0  0  0  0  0  0  0  0  0  0
    2.4319   18.9015   -2.9325 C   0  0  0  0  0  0  0  0  0  0  0  0
    1.2594   18.9047   -3.6955 C   0  0  0  0  0  0  0  0  0  0  0  0
    0.5734   17.7058   -3.9232 C   0  0  0  0  0  0  0  0  0  0  0  0
    0.7934   20.1307   -4.2771 C   0  0  0  0  0  0  0  0  0  0  0  0
    0.4185   21.1329   -4.7237 N   0  0  0  0  0  0  0  0  0  0  0  0
   -3.8253   16.9323   -4.2010 C   0  0  0  0  0  0  0  0  0  0  0  0
   -3.7184   16.6494   -5.6205 N   0  0  0  0  0  0  0  0  0  0  0  0
   -4.7000   17.0982   -6.4982 C   0  0  0  0  0  0  0  0  0  0  0  0
   -5.2496   18.4907   -8.3193 C   0  0  0  0  0  0  0  0  0  0  0  0
   -6.8694   17.2210   -7.5303 C   0  0  0  0  0  0  0  0  0  0  0  0
   -6.0601   16.6676   -6.5421 C   0  0  0  0  0  0  0  0  0  0  0  0
   -6.9147   15.7663   -5.8270 C   0  0  0  0  0  0  0  0  0  0  0  0
   -8.1675   15.7894   -6.4036 C   0  0  0  0  0  0  0  0  0  0  0  0
   -4.3497   18.0258   -7.4336 N   0  0  0  0  0  0  0  0  0  0  0  0
   -6.5303   18.1326   -8.4495 N   0  0  0  0  0  0  0  0  0  0  0  0
   -8.1229   16.6817   -7.4378 N   0  0  0  0  0  0  0  0  0  0  0  0
   -8.8841   16.9262   -8.0548 H   0  0  0  0  0  0  0  0  0  0  0  0
 18 19  1  0  0  0
  1 19  1  0  0  0
  1  2  1  0  0  0
  2  8  1  0  0  0
  3  8  1  0  0  0
  3  4  1  0  0  0
  4  5  1  0  0  0
  4  1  1  0  0  0
  5  6  1  0  0  0
  6  4  1  0  0  0
  7 10  1  0  0  0
 11 12  2  0  0  0
 13 14  2  0  0  0
 14 16  1  0  0  0
 15 10  2  0  0  0
 21 26  2  0  0  0
 22 27  2  0  0  0
 23 24  1  0  0  0
 23 20  2  0  0  0
 25 28  1  0  0  0
 19 20  1  0  0  0
  8  7  1  0  0  0
 28 22  1  0  0  0
  7  9  2  0  0  0
 10 11  1  0  0  0
 12 13  1  0  0  0
 14 15  1  0  0  0
 20 26  1  0  0  0
 21 27  1  0  0  0
 22 23  1  0  0  0
 24 25  2  0  0  0
 16 17  3  0  0  0
 28 29  1  0  0  0
M  END
> <minimizedAffinity>
-9.17803

$$$$
CHEMBL4293188


 29 33  0  0  0  0  0  0  0  0999 V2000
   -2.6365   16.2236   -6.3650 C   0  0  0  0  0  0  0  0  0  0  0  0
   -1.4323   15.4282   -5.8294 C   0  0  0  0  0  0  0  0  0  0  0  0
   -3.3611   14.0051   -5.5765 C   0  0  0  0  0  0  0  0  0  0  0  0
   -3.7911   15.2431   -6.3233 C   0  0  0  0  0  0  0  0  0  0  0  0
   -5.2476   15.6789   -6.3238 C   0  0  0  0  0  0  0  0  0  0  0  0
   -4.6606   15.0787   -7.5621 C   0  0  0  0  0  0  0  0  0  0  0  0
   -1.3106   13.2255   -4.5106 C   0  0  0  0  0  0  0  0  0  0  0  0
   -1.9667   14.2090   -5.2269 N   0  0  0  0  0  0  0  0  0  0  0  0
   -1.8077   12.1138   -4.3249 O   0  0  0  0  0  0  0  0  0  0  0  0
    0.0302   13.4730   -3.9160 C   0  0  0  0  0  0  0  0  0  0  0  0
    0.9887   12.4612   -3.7988 C   0  0  0  0  0  0  0  0  0  0  0  0
    2.2598   12.7425   -3.2953 C   0  0  0  0  0  0  0  0  0  0  0  0
    2.6078   14.0544   -2.9775 C   0  0  0  0  0  0  0  0  0  0  0  0
    1.6851   15.0890   -3.1656 C   0  0  0  0  0  0  0  0  0  0  0  0
    0.3935   14.7962   -3.6190 C   0  0  0  0  0  0  0  0  0  0  0  0
    2.0842   16.4477   -2.9353 C   0  0  0  0  0  0  0  0  0  0  0  0
    2.3891   17.5536   -2.7668 N   0  0  0  0  0  0  0  0  0  0  0  0
   -3.2461   17.4390   -4.2707 C   0  0  0  0  0  0  0  0  0  0  0  0
   -2.8823   17.5074   -5.6741 N   0  0  0  0  0  0  0  0  0  0  0  0
   -2.8313   18.7367   -6.3234 C   0  0  0  0  0  0  0  0  0  0  0  0
   -1.6464   20.7416   -6.6895 C   0  0  0  0  0  0  0  0  0  0  0  0
   -3.5231   20.4903   -7.8177 C   0  0  0  0  0  0  0  0  0  0  0  0
   -3.7878   19.2460   -7.2523 C   0  0  0  0  0  0  0  0  0  0  0  0
   -5.0335   18.8354   -7.8301 C   0  0  0  0  0  0  0  0  0  0  0  0
   -5.4553   19.8066   -8.7140 C   0  0  0  0  0  0  0  0  0  0  0  0
   -1.7609   19.5459   -6.0830 N   0  0  0  0  0  0  0  0  0  0  0  0
   -2.4749   21.2886   -7.5838 N   0  0  0  0  0  0  0  0  0  0  0  0
   -4.5253   20.8077   -8.6927 N   0  0  0  0  0  0  0  0  0  0  0  0
   -4.5494   21.6630   -9.2292 H   0  0  0  0  0  0  0  0  0  0  0  0
 18 19  1  0  0  0
  1 19  1  0  0  0
  1  2  1  0  0  0
  2  8  1  0  0  0
  3  8  1  0  0  0
  3  4  1  0  0  0
  4  5  1  0  0  0
  4  1  1  0  0  0
  5  6  1  0  0  0
  6  4  1  0  0  0
  7 10  1  0  0  0
 11 12  2  0  0  0
 13 14  2  0  0  0
 14 16  1  0  0  0
 15 10  2  0  0  0
 21 26  2  0  0  0
 22 27  2  0  0  0
 23 24  1  0  0  0
 23 20  2  0  0  0
 25 28  1  0  0  0
 19 20  1  0  0  0
  8  7  1  0  0  0
 28 22  1  0  0  0
  7  9  2  0  0  0
 10 11  1  0  0  0
 12 13  1  0  0  0
 14 15  1  0  0  0
 20 26  1  0  0  0
 21 27  1  0  0  0
 22 23  1  0  0  0
 24 25  2  0  0  0
 16 17  3  0  0  0
 28 29  1  0  0  0
M  END
> <minimizedAffinity>
-9.12477

$$$$
CHEMBL4293188


 29 33  0  0  0  0  0  0  0  0999 V2000
   -3.4038   17.1802   -5.8760 C   0  0  0  0  0  0  0  0  0  0  0  0
   -2.1886   17.4434   -4.9684 C   0  0  0  0  0  0  0  0  0  0  0  0
   -2.3882   19.3579   -6.4192 C   0  0  0  0  0  0  0  0  0  0  0  0
   -3.5782   18.4635   -6.6627 C   0  0  0  0  0  0  0  0  0  0  0  0
   -4.3411   18.5322   -7.9759 C   0  0  0  0  0  0  0  0  0  0  0  0
   -4.9603   19.0978   -6.7369 C   0  0  0  0  0  0  0  0  0  0  0  0
   -0.3592   19.2460   -5.0704 C   0  0  0  0  0  0  0  0  0  0  0  0
   -1.5458   18.6576   -5.4662 N   0  0  0  0  0  0  0  0  0  0  0  0
   -0.0865   20.4142   -5.3500 O   0  0  0  0  0  0  0  0  0  0  0  0
    0.6551   18.4835   -4.2944 C   0  0  0  0  0  0  0  0  0  0  0  0
    1.5584   19.1138   -3.4324 C   0  0  0  0  0  0  0  0  0  0  0  0
    2.4545   18.3626   -2.6703 C   0  0  0  0  0  0  0  0  0  0  0  0
    2.4017   16.9700   -2.7063 C   0  0  0  0  0  0  0  0  0  0  0  0
    1.4495   16.3255   -3.5033 C   0  0  0  0  0  0  0  0  0  0  0  0
    0.5886   17.0812   -4.3079 C   0  0  0  0  0  0  0  0  0  0  0  0
    1.3327   14.8964   -3.4555 C   0  0  0  0  0  0  0  0  0  0  0  0
    1.2602   13.7394   -3.4311 N   0  0  0  0  0  0  0  0  0  0  0  0
   -2.5482   16.0481   -7.9306 C   0  0  0  0  0  0  0  0  0  0  0  0
   -3.3052   15.9538   -6.6958 N   0  0  0  0  0  0  0  0  0  0  0  0
   -3.9433   14.7650   -6.3567 C   0  0  0  0  0  0  0  0  0  0  0  0
   -5.9757   13.5852   -6.1699 C   0  0  0  0  0  0  0  0  0  0  0  0
   -4.1432   12.4705   -5.6626 C   0  0  0  0  0  0  0  0  0  0  0  0
   -3.3162   13.5618   -5.9138 C   0  0  0  0  0  0  0  0  0  0  0  0
   -1.9915   13.0943   -5.6296 C   0  0  0  0  0  0  0  0  0  0  0  0
   -2.0593   11.7704   -5.2484 C   0  0  0  0  0  0  0  0  0  0  0  0
   -5.3006   14.7097   -6.4703 N   0  0  0  0  0  0  0  0  0  0  0  0
   -5.4757   12.4120   -5.7713 N   0  0  0  0  0  0  0  0  0  0  0  0
   -3.3766   11.4072   -5.2721 N   0  0  0  0  0  0  0  0  0  0  0  0
   -3.7549   10.5000   -5.0401 H   0  0  0  0  0  0  0  0  0  0  0  0
 18 19  1  0  0  0
  1 19  1  0  0  0
  1  2  1  0  0  0
  2  8  1  0  0  0
  3  8  1  0  0  0
  3  4  1  0  0  0
  4  5  1  0  0  0
  4  1  1  0  0  0
  5  6  1  0  0  0
  6  4  1  0  0  0
  7 10  1  0  0  0
 11 12  2  0  0  0
 13 14  2  0  0  0
 14 16  1  0  0  0
 15 10  2  0  0  0
 21 26  2  0  0  0
 22 27  2  0  0  0
 23 24  1  0  0  0
 23 20  2  0  0  0
 25 28  1  0  0  0
 19 20  1  0  0  0
  8  7  1  0  0  0
 28 22  1  0  0  0
  7  9  2  0  0  0
 10 11  1  0  0  0
 12 13  1  0  0  0
 14 15  1  0  0  0
 20 26  1  0  0  0
 21 27  1  0  0  0
 22 23  1  0  0  0
 24 25  2  0  0  0
 16 17  3  0  0  0
 28 29  1  0  0  0
M  END
> <minimizedAffinity>
-9.11891

$$$$
CHEMBL4290647


 27 31  0  0  0  0  0  0  0  0999 V2000
   -3.7901   16.4754   -5.4750 C   0  0  0  0  0  0  0  0  0  0  0  0
   -2.4611   16.3371   -4.7093 C   0  0  0  0  0  0  0  0  0  0  0  0
   -2.3043   18.3732   -5.9991 C   0  0  0  0  0  0  0  0  0  0  0  0
   -3.6967   17.8200   -6.1737 C   0  0  0  0  0  0  0  0  0  0  0  0
   -4.8829   18.7715   -6.1199 C   0  0  0  0  0  0  0  0  0  0  0  0
   -4.4946   18.1532   -7.4256 C   0  0  0  0  0  0  0  0  0  0  0  0
   -0.2625   17.6178   -4.8849 C   0  0  0  0  0  0  0  0  0  0  0  0
   -1.5943   17.4135   -5.1788 N   0  0  0  0  0  0  0  0  0  0  0  0
    0.3488   18.6360   -5.2047 O   0  0  0  0  0  0  0  0  0  0  0  0
    0.4702   16.5806   -4.1271 C   0  0  0  0  0  0  0  0  0  0  0  0
    1.6390   16.9430   -3.4508 C   0  0  0  0  0  0  0  0  0  0  0  0
    2.3698   15.9739   -2.7624 C   0  0  0  0  0  0  0  0  0  0  0  0
    1.9405   14.6454   -2.7621 C   0  0  0  0  0  0  0  0  0  0  0  0
    0.7884   14.2794   -3.4601 C   0  0  0  0  0  0  0  0  0  0  0  0
    0.0577   15.2445   -4.1538 C   0  0  0  0  0  0  0  0  0  0  0  0
   -3.1766   15.0879   -7.4597 C   0  0  0  0  0  0  0  0  0  0  0  0
   -4.1067   15.3500   -6.3778 N   0  0  0  0  0  0  0  0  0  0  0  0
   -5.1868   14.5041   -6.1503 C   0  0  0  0  0  0  0  0  0  0  0  0
   -7.5205   14.3010   -5.8791 C   0  0  0  0  0  0  0  0  0  0  0  0
   -6.3443   12.4441   -5.7241 C   0  0  0  0  0  0  0  0  0  0  0  0
   -5.1345   13.0959   -5.9463 C   0  0  0  0  0  0  0  0  0  0  0  0
   -4.1417   12.0650   -5.8991 C   0  0  0  0  0  0  0  0  0  0  0  0
   -4.7667   10.8603   -5.6526 C   0  0  0  0  0  0  0  0  0  0  0  0
   -6.4334   15.0543   -6.1163 N   0  0  0  0  0  0  0  0  0  0  0  0
   -7.5691   12.9820   -5.6768 N   0  0  0  0  0  0  0  0  0  0  0  0
   -6.1065   11.1096   -5.5482 N   0  0  0  0  0  0  0  0  0  0  0  0
   -6.8339   10.4326   -5.3691 H   0  0  0  0  0  0  0  0  0  0  0  0
 16 17  1  0  0  0
  1 17  1  0  0  0
  1  2  1  0  0  0
  2  8  1  0  0  0
  3  8  1  0  0  0
  3  4  1  0  0  0
  4  5  1  0  0  0
  4  1  1  0  0  0
  5  6  1  0  0  0
  6  4  1  0  0  0
  7 10  1  0  0  0
 11 12  2  0  0  0
 13 14  2  0  0  0
 15 10  2  0  0  0
 19 24  2  0  0  0
 20 25  2  0  0  0
 21 22  1  0  0  0
 21 18  2  0  0  0
 23 26  1  0  0  0
 17 18  1  0  0  0
  8  7  1  0  0  0
 26 20  1  0  0  0
  7  9  2  0  0  0
 10 11  1  0  0  0
 12 13  1  0  0  0
 14 15  1  0  0  0
 18 24  1  0  0  0
 19 25  1  0  0  0
 20 21  1  0  0  0
 22 23  2  0  0  0
 26 27  1  0  0  0
M  END
> <minimizedAffinity>
-10.34845

$$$$
CHEMBL4290647


 27 31  0  0  0  0  0  0  0  0999 V2000
   -3.6650   16.3230   -5.5484 C   0  0  0  0  0  0  0  0  0  0  0  0
   -2.3356   16.2814   -4.7721 C   0  0  0  0  0  0  0  0  0  0  0  0
   -2.2742   18.2731   -6.1371 C   0  0  0  0  0  0  0  0  0  0  0  0
   -3.6355   17.6435   -6.2968 C   0  0  0  0  0  0  0  0  0  0  0  0
   -4.8688   18.5347   -6.2842 C   0  0  0  0  0  0  0  0  0  0  0  0
   -4.4414   17.8885   -7.5639 C   0  0  0  0  0  0  0  0  0  0  0  0
   -0.2037   17.6649   -4.9862 C   0  0  0  0  0  0  0  0  0  0  0  0
   -1.5216   17.3822   -5.2780 N   0  0  0  0  0  0  0  0  0  0  0  0
    0.3571   18.7003   -5.3414 O   0  0  0  0  0  0  0  0  0  0  0  0
    0.5758   16.6956   -4.1865 C   0  0  0  0  0  0  0  0  0  0  0  0
    1.6743   17.1577   -3.4554 C   0  0  0  0  0  0  0  0  0  0  0  0
    2.4496   16.2559   -2.7256 C   0  0  0  0  0  0  0  0  0  0  0  0
    2.1356   14.8956   -2.7384 C   0  0  0  0  0  0  0  0  0  0  0  0
    1.0551   14.4312   -3.4904 C   0  0  0  0  0  0  0  0  0  0  0  0
    0.2804   15.3291   -4.2254 C   0  0  0  0  0  0  0  0  0  0  0  0
   -3.0144   14.9401   -7.5244 C   0  0  0  0  0  0  0  0  0  0  0  0
   -3.9184   15.1499   -6.4094 N   0  0  0  0  0  0  0  0  0  0  0  0
   -4.9094   14.2198   -6.1150 C   0  0  0  0  0  0  0  0  0  0  0  0
   -5.4843   11.9445   -5.8836 C   0  0  0  0  0  0  0  0  0  0  0  0
   -7.0938   13.4088   -5.5360 C   0  0  0  0  0  0  0  0  0  0  0  0
   -6.2660   14.4998   -5.7852 C   0  0  0  0  0  0  0  0  0  0  0  0
   -7.1030   15.6492   -5.6154 C   0  0  0  0  0  0  0  0  0  0  0  0
   -8.3731   15.2259   -5.2832 C   0  0  0  0  0  0  0  0  0  0  0  0
   -4.5729   12.8991   -6.1359 N   0  0  0  0  0  0  0  0  0  0  0  0
   -6.7712   12.1101   -5.5681 N   0  0  0  0  0  0  0  0  0  0  0  0
   -8.3497   13.8600   -5.2399 N   0  0  0  0  0  0  0  0  0  0  0  0
   -9.1251   13.2499   -5.0253 H   0  0  0  0  0  0  0  0  0  0  0  0
 16 17  1  0  0  0
  1 17  1  0  0  0
  1  2  1  0  0  0
  2  8  1  0  0  0
  3  8  1  0  0  0
  3  4  1  0  0  0
  4  5  1  0  0  0
  4  1  1  0  0  0
  5  6  1  0  0  0
  6  4  1  0  0  0
  7 10  1  0  0  0
 11 12  2  0  0  0
 13 14  2  0  0  0
 15 10  2  0  0  0
 19 24  2  0  0  0
 20 25  2  0  0  0
 21 22  1  0  0  0
 21 18  2  0  0  0
 23 26  1  0  0  0
 17 18  1  0  0  0
  8  7  1  0  0  0
 26 20  1  0  0  0
  7  9  2  0  0  0
 10 11  1  0  0  0
 12 13  1  0  0  0
 14 15  1  0  0  0
 18 24  1  0  0  0
 19 25  1  0  0  0
 20 21  1  0  0  0
 22 23  2  0  0  0
 26 27  1  0  0  0
M  END
> <minimizedAffinity>
-10.07836

$$$$
CHEMBL4290647


 27 31  0  0  0  0  0  0  0  0999 V2000
   -3.4221   17.9316   -5.6051 C   0  0  0  0  0  0  0  0  0  0  0  0
   -2.2125   17.3806   -4.8273 C   0  0  0  0  0  0  0  0  0  0  0  0
   -1.4535   19.3749   -5.9588 C   0  0  0  0  0  0  0  0  0  0  0  0
   -2.9364   19.2413   -6.1998 C   0  0  0  0  0  0  0  0  0  0  0  0
   -3.8170   20.4781   -6.0971 C   0  0  0  0  0  0  0  0  0  0  0  0
   -3.5637   19.8648   -7.4378 C   0  0  0  0  0  0  0  0  0  0  0  0
    0.2583   18.0119   -4.8665 C   0  0  0  0  0  0  0  0  0  0  0  0
   -1.0661   18.2040   -5.1993 N   0  0  0  0  0  0  0  0  0  0  0  0
    1.1374   18.8402   -5.0982 O   0  0  0  0  0  0  0  0  0  0  0  0
    0.6485   16.7645   -4.1746 C   0  0  0  0  0  0  0  0  0  0  0  0
    1.8553   16.7373   -3.4691 C   0  0  0  0  0  0  0  0  0  0  0  0
    2.2646   15.5598   -2.8420 C   0  0  0  0  0  0  0  0  0  0  0  0
    1.4767   14.4108   -2.9321 C   0  0  0  0  0  0  0  0  0  0  0  0
    0.2855   14.4311   -3.6595 C   0  0  0  0  0  0  0  0  0  0  0  0
   -0.1248   15.6051   -4.2921 C   0  0  0  0  0  0  0  0  0  0  0  0
   -3.0801   16.3487   -7.5071 C   0  0  0  0  0  0  0  0  0  0  0  0
   -4.0007   17.0004   -6.5948 N   0  0  0  0  0  0  0  0  0  0  0  0
   -5.3518   16.6710   -6.5950 C   0  0  0  0  0  0  0  0  0  0  0  0
   -7.0623   15.3253   -5.6870 C   0  0  0  0  0  0  0  0  0  0  0  0
   -7.6577   16.7500   -7.2590 C   0  0  0  0  0  0  0  0  0  0  0  0
   -6.3645   17.2395   -7.4187 C   0  0  0  0  0  0  0  0  0  0  0  0
   -6.4680   18.2403   -8.4377 C   0  0  0  0  0  0  0  0  0  0  0  0
   -7.7820   18.3164   -8.8507 C   0  0  0  0  0  0  0  0  0  0  0  0
   -5.7754   15.7100   -5.7260 N   0  0  0  0  0  0  0  0  0  0  0  0
   -8.0760   15.7976   -6.4166 N   0  0  0  0  0  0  0  0  0  0  0  0
   -8.4918   17.4022   -8.1236 N   0  0  0  0  0  0  0  0  0  0  0  0
   -9.4815   17.2144   -8.1920 H   0  0  0  0  0  0  0  0  0  0  0  0
 16 17  1  0  0  0
  1 17  1  0  0  0
  1  2  1  0  0  0
  2  8  1  0  0  0
  3  8  1  0  0  0
  3  4  1  0  0  0
  4  5  1  0  0  0
  4  1  1  0  0  0
  5  6  1  0  0  0
  6  4  1  0  0  0
  7 10  1  0  0  0
 11 12  2  0  0  0
 13 14  2  0  0  0
 15 10  2  0  0  0
 19 24  2  0  0  0
 20 25  2  0  0  0
 21 22  1  0  0  0
 21 18  2  0  0  0
 23 26  1  0  0  0
 17 18  1  0  0  0
  8  7  1  0  0  0
 26 20  1  0  0  0
  7  9  2  0  0  0
 10 11  1  0  0  0
 12 13  1  0  0  0
 14 15  1  0  0  0
 18 24  1  0  0  0
 19 25  1  0  0  0
 20 21  1  0  0  0
 22 23  2  0  0  0
 26 27  1  0  0  0
M  END
> <minimizedAffinity>
-9.78951

$$$$
CHEMBL4290647


 27 31  0  0  0  0  0  0  0  0999 V2000
   -3.5451   17.9724   -5.8516 C   0  0  0  0  0  0  0  0  0  0  0  0
   -2.3687   17.3768   -5.0559 C   0  0  0  0  0  0  0  0  0  0  0  0
   -1.5642   19.4297   -6.0418 C   0  0  0  0  0  0  0  0  0  0  0  0
   -3.0357   19.3123   -6.3516 C   0  0  0  0  0  0  0  0  0  0  0  0
   -3.9204   20.5430   -6.2171 C   0  0  0  0  0  0  0  0  0  0  0  0
   -3.6109   20.0049   -7.5781 C   0  0  0  0  0  0  0  0  0  0  0  0
    0.1012   18.0049   -4.9565 C   0  0  0  0  0  0  0  0  0  0  0  0
   -1.2082   18.2176   -5.3331 N   0  0  0  0  0  0  0  0  0  0  0  0
    0.9887   18.8433   -5.1047 O   0  0  0  0  0  0  0  0  0  0  0  0
    0.4628   16.7202   -4.3195 C   0  0  0  0  0  0  0  0  0  0  0  0
   -0.4662   15.6756   -4.3402 C   0  0  0  0  0  0  0  0  0  0  0  0
   -0.1641   14.4674   -3.7107 C   0  0  0  0  0  0  0  0  0  0  0  0
    1.0563   14.3100   -3.0513 C   0  0  0  0  0  0  0  0  0  0  0  0
    1.9720   15.3626   -3.0076 C   0  0  0  0  0  0  0  0  0  0  0  0
    1.6717   16.5739   -3.6316 C   0  0  0  0  0  0  0  0  0  0  0  0
   -3.1336   16.2556   -7.6191 C   0  0  0  0  0  0  0  0  0  0  0  0
   -4.0812   17.0987   -6.9150 N   0  0  0  0  0  0  0  0  0  0  0  0
   -5.4448   16.9986   -7.1690 C   0  0  0  0  0  0  0  0  0  0  0  0
   -7.2754   17.7202   -8.4686 C   0  0  0  0  0  0  0  0  0  0  0  0
   -7.7069   16.2434   -6.8912 C   0  0  0  0  0  0  0  0  0  0  0  0
   -6.3801   16.1797   -6.4749 C   0  0  0  0  0  0  0  0  0  0  0  0
   -6.3723   15.2353   -5.3984 C   0  0  0  0  0  0  0  0  0  0  0  0
   -7.6586   14.7768   -5.2033 C   0  0  0  0  0  0  0  0  0  0  0  0
   -5.9631   17.7496   -8.1816 N   0  0  0  0  0  0  0  0  0  0  0  0
   -8.2226   16.9889   -7.8761 N   0  0  0  0  0  0  0  0  0  0  0  0
   -8.4577   15.4011   -6.1196 N   0  0  0  0  0  0  0  0  0  0  0  0
   -9.4536   15.2796   -6.2337 H   0  0  0  0  0  0  0  0  0  0  0  0
 16 17  1  0  0  0
  1 17  1  0  0  0
  1  2  1  0  0  0
  2  8  1  0  0  0
  3  8  1  0  0  0
  3  4  1  0  0  0
  4  5  1  0  0  0
  4  1  1  0  0  0
  5  6  1  0  0  0
  6  4  1  0  0  0
  7 10  1  0  0  0
 11 12  2  0  0  0
 13 14  2  0  0  0
 15 10  2  0  0  0
 19 24  2  0  0  0
 20 25  2  0  0  0
 21 22  1  0  0  0
 21 18  2  0  0  0
 23 26  1  0  0  0
 17 18  1  0  0  0
  8  7  1  0  0  0
 26 20  1  0  0  0
  7  9  2  0  0  0
 10 11  1  0  0  0
 12 13  1  0  0  0
 14 15  1  0  0  0
 18 24  1  0  0  0
 19 25  1  0  0  0
 20 21  1  0  0  0
 22 23  2  0  0  0
 26 27  1  0  0  0
M  END
> <minimizedAffinity>
-9.37185

$$$$
CHEMBL4290647


 27 31  0  0  0  0  0  0  0  0999 V2000
   -2.4693   16.1325   -6.2697 C   0  0  0  0  0  0  0  0  0  0  0  0
   -1.1546   16.5214   -5.5681 C   0  0  0  0  0  0  0  0  0  0  0  0
   -1.5271   14.1841   -5.0865 C   0  0  0  0  0  0  0  0  0  0  0  0
   -2.6018   14.6372   -6.0430 C   0  0  0  0  0  0  0  0  0  0  0  0
   -2.9806   13.7374   -7.2102 C   0  0  0  0  0  0  0  0  0  0  0  0
   -3.9410   13.9159   -6.0773 C   0  0  0  0  0  0  0  0  0  0  0  0
    0.2996   15.2771   -3.8823 C   0  0  0  0  0  0  0  0  0  0  0  0
   -0.7406   15.3621   -4.7838 N   0  0  0  0  0  0  0  0  0  0  0  0
    0.6694   14.2173   -3.3795 O   0  0  0  0  0  0  0  0  0  0  0  0
    1.0296   16.5092   -3.5139 C   0  0  0  0  0  0  0  0  0  0  0  0
    2.3025   16.3916   -2.9475 C   0  0  0  0  0  0  0  0  0  0  0  0
    2.9943   17.5378   -2.5543 C   0  0  0  0  0  0  0  0  0  0  0  0
    2.4093   18.7954   -2.7141 C   0  0  0  0  0  0  0  0  0  0  0  0
    1.1274   18.9102   -3.2545 C   0  0  0  0  0  0  0  0  0  0  0  0
    0.4304   17.7661   -3.6444 C   0  0  0  0  0  0  0  0  0  0  0  0
   -3.8134   17.1522   -4.4274 C   0  0  0  0  0  0  0  0  0  0  0  0
   -3.6518   16.9110   -5.8488 N   0  0  0  0  0  0  0  0  0  0  0  0
   -4.5222   17.4849   -6.7691 C   0  0  0  0  0  0  0  0  0  0  0  0
   -4.8307   19.0896   -8.4693 C   0  0  0  0  0  0  0  0  0  0  0  0
   -6.5818   17.8592   -7.9448 C   0  0  0  0  0  0  0  0  0  0  0  0
   -5.8900   17.1447   -6.9708 C   0  0  0  0  0  0  0  0  0  0  0  0
   -6.8445   16.2190   -6.4393 C   0  0  0  0  0  0  0  0  0  0  0  0
   -8.0477   16.4031   -7.0884 C   0  0  0  0  0  0  0  0  0  0  0  0
   -4.0407   18.4748   -7.5729 N   0  0  0  0  0  0  0  0  0  0  0  0
   -6.1170   18.8408   -8.7272 N   0  0  0  0  0  0  0  0  0  0  0  0
   -7.8700   17.4053   -8.0006 N   0  0  0  0  0  0  0  0  0  0  0  0
   -8.5647   17.7757   -8.6328 H   0  0  0  0  0  0  0  0  0  0  0  0
 16 17  1  0  0  0
  1 17  1  0  0  0
  1  2  1  0  0  0
  2  8  1  0  0  0
  3  8  1  0  0  0
  3  4  1  0  0  0
  4  5  1  0  0  0
  4  1  1  0  0  0
  5  6  1  0  0  0
  6  4  1  0  0  0
  7 10  1  0  0  0
 11 12  2  0  0  0
 13 14  2  0  0  0
 15 10  2  0  0  0
 19 24  2  0  0  0
 20 25  2  0  0  0
 21 22  1  0  0  0
 21 18  2  0  0  0
 23 26  1  0  0  0
 17 18  1  0  0  0
  8  7  1  0  0  0
 26 20  1  0  0  0
  7  9  2  0  0  0
 10 11  1  0  0  0
 12 13  1  0  0  0
 14 15  1  0  0  0
 18 24  1  0  0  0
 19 25  1  0  0  0
 20 21  1  0  0  0
 22 23  2  0  0  0
 26 27  1  0  0  0
M  END
> <minimizedAffinity>
-9.28531

$$$$
CHEMBL4290647


 27 31  0  0  0  0  0  0  0  0999 V2000
   -2.4781   16.1972   -6.2922 C   0  0  0  0  0  0  0  0  0  0  0  0
   -1.3129   15.4391   -5.6293 C   0  0  0  0  0  0  0  0  0  0  0  0
   -3.1875   13.9169   -5.6754 C   0  0  0  0  0  0  0  0  0  0  0  0
   -3.5910   15.1713   -6.4093 C   0  0  0  0  0  0  0  0  0  0  0  0
   -4.3564   15.0485   -7.7187 C   0  0  0  0  0  0  0  0  0  0  0  0
   -5.0596   15.5583   -6.5008 C   0  0  0  0  0  0  0  0  0  0  0  0
   -1.2238   13.2044   -4.4034 C   0  0  0  0  0  0  0  0  0  0  0  0
   -1.8514   14.1618   -5.1724 N   0  0  0  0  0  0  0  0  0  0  0  0
   -1.7019   12.0910   -4.1927 O   0  0  0  0  0  0  0  0  0  0  0  0
    0.0999   13.5105   -3.8196 C   0  0  0  0  0  0  0  0  0  0  0  0
    0.3423   14.8036   -3.3465 C   0  0  0  0  0  0  0  0  0  0  0  0
    1.5967   15.1278   -2.8283 C   0  0  0  0  0  0  0  0  0  0  0  0
    2.6085   14.1663   -2.7967 C   0  0  0  0  0  0  0  0  0  0  0  0
    2.3742   12.8834   -3.2943 C   0  0  0  0  0  0  0  0  0  0  0  0
    1.1228   12.5567   -3.8177 C   0  0  0  0  0  0  0  0  0  0  0  0
   -3.2978   17.3306   -4.2225 C   0  0  0  0  0  0  0  0  0  0  0  0
   -2.8787   17.4427   -5.6068 N   0  0  0  0  0  0  0  0  0  0  0  0
   -2.7627   18.6883   -6.2141 C   0  0  0  0  0  0  0  0  0  0  0  0
   -1.5567   20.7083   -6.3757 C   0  0  0  0  0  0  0  0  0  0  0  0
   -3.3324   20.5138   -7.6660 C   0  0  0  0  0  0  0  0  0  0  0  0
   -3.6317   19.2368   -7.1997 C   0  0  0  0  0  0  0  0  0  0  0  0
   -4.8085   18.8451   -7.9155 C   0  0  0  0  0  0  0  0  0  0  0  0
   -5.1727   19.8711   -8.7626 C   0  0  0  0  0  0  0  0  0  0  0  0
   -1.7184   19.4836   -5.8470 N   0  0  0  0  0  0  0  0  0  0  0  0
   -2.3158   21.3035   -7.2990 N   0  0  0  0  0  0  0  0  0  0  0  0
   -4.2640   20.8786   -8.5973 N   0  0  0  0  0  0  0  0  0  0  0  0
   -4.2558   21.7680   -9.0754 H   0  0  0  0  0  0  0  0  0  0  0  0
 16 17  1  0  0  0
  1 17  1  0  0  0
  1  2  1  0  0  0
  2  8  1  0  0  0
  3  8  1  0  0  0
  3  4  1  0  0  0
  4  5  1  0  0  0
  4  1  1  0  0  0
  5  6  1  0  0  0
  6  4  1  0  0  0
  7 10  1  0  0  0
 11 12  2  0  0  0
 13 14  2  0  0  0
 15 10  2  0  0  0
 19 24  2  0  0  0
 20 25  2  0  0  0
 21 22  1  0  0  0
 21 18  2  0  0  0
 23 26  1  0  0  0
 17 18  1  0  0  0
  8  7  1  0  0  0
 26 20  1  0  0  0
  7  9  2  0  0  0
 10 11  1  0  0  0
 12 13  1  0  0  0
 14 15  1  0  0  0
 18 24  1  0  0  0
 19 25  1  0  0  0
 20 21  1  0  0  0
 22 23  2  0  0  0
 26 27  1  0  0  0
M  END
> <minimizedAffinity>
-9.04270

$$$$
CHEMBL4290647


 27 31  0  0  0  0  0  0  0  0999 V2000
   -2.4823   16.1491   -6.2752 C   0  0  0  0  0  0  0  0  0  0  0  0
   -1.1788   16.5682   -5.5702 C   0  0  0  0  0  0  0  0  0  0  0  0
   -1.5320   14.2391   -5.0373 C   0  0  0  0  0  0  0  0  0  0  0  0
   -2.6017   14.6583   -6.0147 C   0  0  0  0  0  0  0  0  0  0  0  0
   -2.9595   13.7274   -7.1640 C   0  0  0  0  0  0  0  0  0  0  0  0
   -3.9330   13.9224   -6.0450 C   0  0  0  0  0  0  0  0  0  0  0  0
    0.2712   15.3791   -3.8413 C   0  0  0  0  0  0  0  0  0  0  0  0
   -0.7608   15.4321   -4.7547 N   0  0  0  0  0  0  0  0  0  0  0  0
    0.6467   14.3354   -3.3102 O   0  0  0  0  0  0  0  0  0  0  0  0
    0.9847   16.6271   -3.4949 C   0  0  0  0  0  0  0  0  0  0  0  0
    2.2611   16.5365   -2.9314 C   0  0  0  0  0  0  0  0  0  0  0  0
    2.9378   17.6986   -2.5587 C   0  0  0  0  0  0  0  0  0  0  0  0
    2.3344   18.9450   -2.7362 C   0  0  0  0  0  0  0  0  0  0  0  0
    1.0492   19.0331   -3.2736 C   0  0  0  0  0  0  0  0  0  0  0  0
    0.3672   17.8732   -3.6429 C   0  0  0  0  0  0  0  0  0  0  0  0
   -3.9885   16.9916   -4.4690 C   0  0  0  0  0  0  0  0  0  0  0  0
   -3.6769   16.9249   -5.8843 N   0  0  0  0  0  0  0  0  0  0  0  0
   -4.4181   17.6526   -6.8089 C   0  0  0  0  0  0  0  0  0  0  0  0
   -6.3912   17.7969   -8.0922 C   0  0  0  0  0  0  0  0  0  0  0  0
   -4.9386   19.4367   -8.3290 C   0  0  0  0  0  0  0  0  0  0  0  0
   -4.0436   18.8844   -7.4171 C   0  0  0  0  0  0  0  0  0  0  0  0
   -2.9444   19.8010   -7.3718 C   0  0  0  0  0  0  0  0  0  0  0  0
   -3.2028   20.8442   -8.2365 C   0  0  0  0  0  0  0  0  0  0  0  0
   -5.6311   17.1586   -7.1865 N   0  0  0  0  0  0  0  0  0  0  0  0
   -6.1245   18.9487   -8.7127 N   0  0  0  0  0  0  0  0  0  0  0  0
   -4.4200   20.6060   -8.8110 N   0  0  0  0  0  0  0  0  0  0  0  0
   -4.8903   21.1862   -9.4905 H   0  0  0  0  0  0  0  0  0  0  0  0
 16 17  1  0  0  0
  1 17  1  0  0  0
  1  2  1  0  0  0
  2  8  1  0  0  0
  3  8  1  0  0  0
  3  4  1  0  0  0
  4  5  1  0  0  0
  4  1  1  0  0  0
  5  6  1  0  0  0
  6  4  1  0  0  0
  7 10  1  0  0  0
 11 12  2  0  0  0
 13 14  2  0  0  0
 15 10  2  0  0  0
 19 24  2  0  0  0
 20 25  2  0  0  0
 21 22  1  0  0  0
 21 18  2  0  0  0
 23 26  1  0  0  0
 17 18  1  0  0  0
  8  7  1  0  0  0
 26 20  1  0  0  0
  7  9  2  0  0  0
 10 11  1  0  0  0
 12 13  1  0  0  0
 14 15  1  0  0  0
 18 24  1  0  0  0
 19 25  1  0  0  0
 20 21  1  0  0  0
 22 23  2  0  0  0
 26 27  1  0  0  0
M  END
> <minimizedAffinity>
-8.98738

$$$$
CHEMBL4290647


 27 31  0  0  0  0  0  0  0  0999 V2000
   -3.6452   18.8575   -5.8195 C   0  0  0  0  0  0  0  0  0  0  0  0
   -2.5401   18.1120   -5.0484 C   0  0  0  0  0  0  0  0  0  0  0  0
   -1.4298   19.7563   -6.4257 C   0  0  0  0  0  0  0  0  0  0  0  0
   -2.9175   19.9542   -6.5760 C   0  0  0  0  0  0  0  0  0  0  0  0
   -3.4808   21.3678   -6.5638 C   0  0  0  0  0  0  0  0  0  0  0  0
   -3.4750   20.5894   -7.8412 C   0  0  0  0  0  0  0  0  0  0  0  0
   -0.0002   18.1364   -5.2797 C   0  0  0  0  0  0  0  0  0  0  0  0
   -1.2662   18.6034   -5.5644 N   0  0  0  0  0  0  0  0  0  0  0  0
    1.0258   18.7087   -5.6435 O   0  0  0  0  0  0  0  0  0  0  0  0
    0.1436   16.9025   -4.4774 C   0  0  0  0  0  0  0  0  0  0  0  0
    1.2584   16.7695   -3.6441 C   0  0  0  0  0  0  0  0  0  0  0  0
    1.4371   15.5976   -2.9081 C   0  0  0  0  0  0  0  0  0  0  0  0
    0.5119   14.5577   -3.0159 C   0  0  0  0  0  0  0  0  0  0  0  0
   -0.5864   14.6802   -3.8688 C   0  0  0  0  0  0  0  0  0  0  0  0
   -0.7660   15.8485   -4.6102 C   0  0  0  0  0  0  0  0  0  0  0  0
   -5.5972   18.6405   -7.3633 C   0  0  0  0  0  0  0  0  0  0  0  0
   -4.4938   18.0006   -6.6723 N   0  0  0  0  0  0  0  0  0  0  0  0
   -4.1973   16.6607   -6.8974 C   0  0  0  0  0  0  0  0  0  0  0  0
   -2.7388   15.0943   -7.8876 C   0  0  0  0  0  0  0  0  0  0  0  0
   -4.4743   14.2776   -6.8029 C   0  0  0  0  0  0  0  0  0  0  0  0
   -4.9512   15.5376   -6.4528 C   0  0  0  0  0  0  0  0  0  0  0  0
   -6.1401   15.2886   -5.6944 C   0  0  0  0  0  0  0  0  0  0  0  0
   -6.3382   13.9256   -5.6178 C   0  0  0  0  0  0  0  0  0  0  0  0
   -3.0750   16.3659   -7.6127 N   0  0  0  0  0  0  0  0  0  0  0  0
   -3.3803   13.9837   -7.5160 N   0  0  0  0  0  0  0  0  0  0  0  0
   -5.3157   13.3259   -6.2983 N   0  0  0  0  0  0  0  0  0  0  0  0
   -5.1762   12.3340   -6.4262 H   0  0  0  0  0  0  0  0  0  0  0  0
 16 17  1  0  0  0
  1 17  1  0  0  0
  1  2  1  0  0  0
  2  8  1  0  0  0
  3  8  1  0  0  0
  3  4  1  0  0  0
  4  5  1  0  0  0
  4  1  1  0  0  0
  5  6  1  0  0  0
  6  4  1  0  0  0
  7 10  1  0  0  0
 11 12  2  0  0  0
 13 14  2  0  0  0
 15 10  2  0  0  0
 19 24  2  0  0  0
 20 25  2  0  0  0
 21 22  1  0  0  0
 21 18  2  0  0  0
 23 26  1  0  0  0
 17 18  1  0  0  0
  8  7  1  0  0  0
 26 20  1  0  0  0
  7  9  2  0  0  0
 10 11  1  0  0  0
 12 13  1  0  0  0
 14 15  1  0  0  0
 18 24  1  0  0  0
 19 25  1  0  0  0
 20 21  1  0  0  0
 22 23  2  0  0  0
 26 27  1  0  0  0
M  END
> <minimizedAffinity>
-8.95679

$$$$
CHEMBL4290647


 27 31  0  0  0  0  0  0  0  0999 V2000
   -1.0937   16.9356   -5.5866 C   0  0  0  0  0  0  0  0  0  0  0  0
   -1.6881   18.1764   -6.2787 C   0  0  0  0  0  0  0  0  0  0  0  0
   -0.0063   18.9829   -4.7442 C   0  0  0  0  0  0  0  0  0  0  0  0
    0.0342   17.4752   -4.7256 C   0  0  0  0  0  0  0  0  0  0  0  0
    1.3832   16.7712   -4.7379 C   0  0  0  0  0  0  0  0  0  0  0  0
    0.5510   16.7447   -3.4951 C   0  0  0  0  0  0  0  0  0  0  0  0
   -1.4200   20.6693   -5.8115 C   0  0  0  0  0  0  0  0  0  0  0  0
   -1.0959   19.3414   -5.6286 N   0  0  0  0  0  0  0  0  0  0  0  0
   -0.7651   21.5938   -5.3329 O   0  0  0  0  0  0  0  0  0  0  0  0
   -2.5947   21.0113   -6.6420 C   0  0  0  0  0  0  0  0  0  0  0  0
   -3.6445   21.7268   -6.0581 C   0  0  0  0  0  0  0  0  0  0  0  0
   -4.7812   22.0262   -6.8101 C   0  0  0  0  0  0  0  0  0  0  0  0
   -4.8732   21.5994   -8.1361 C   0  0  0  0  0  0  0  0  0  0  0  0
   -3.8366   20.8616   -8.7101 C   0  0  0  0  0  0  0  0  0  0  0  0
   -2.7004   20.5559   -7.9601 C   0  0  0  0  0  0  0  0  0  0  0  0
   -2.8072   16.7526   -3.7780 C   0  0  0  0  0  0  0  0  0  0  0  0
   -2.0700   16.1086   -4.8487 N   0  0  0  0  0  0  0  0  0  0  0  0
   -2.3582   14.8001   -5.2211 C   0  0  0  0  0  0  0  0  0  0  0  0
   -3.7647   13.3519   -6.4398 C   0  0  0  0  0  0  0  0  0  0  0  0
   -2.1257   12.4119   -5.3061 C   0  0  0  0  0  0  0  0  0  0  0  0
   -1.6558   13.6285   -4.8194 C   0  0  0  0  0  0  0  0  0  0  0  0
   -0.5248   13.2932   -4.0076 C   0  0  0  0  0  0  0  0  0  0  0  0
   -0.3569   11.9242   -4.0270 C   0  0  0  0  0  0  0  0  0  0  0  0
   -3.4148   14.5913   -6.0566 N   0  0  0  0  0  0  0  0  0  0  0  0
   -3.1704   12.2009   -6.1159 N   0  0  0  0  0  0  0  0  0  0  0  0
   -1.3400   11.4038   -4.8213 N   0  0  0  0  0  0  0  0  0  0  0  0
   -1.4890   10.4285   -5.0360 H   0  0  0  0  0  0  0  0  0  0  0  0
 16 17  1  0  0  0
  1 17  1  0  0  0
  1  2  1  0  0  0
  2  8  1  0  0  0
  3  8  1  0  0  0
  3  4  1  0  0  0
  4  5  1  0  0  0
  4  1  1  0  0  0
  5  6  1  0  0  0
  6  4  1  0  0  0
  7 10  1  0  0  0
 11 12  2  0  0  0
 13 14  2  0  0  0
 15 10  2  0  0  0
 19 24  2  0  0  0
 20 25  2  0  0  0
 21 22  1  0  0  0
 21 18  2  0  0  0
 23 26  1  0  0  0
 17 18  1  0  0  0
  8  7  1  0  0  0
 26 20  1  0  0  0
  7  9  2  0  0  0
 10 11  1  0  0  0
 12 13  1  0  0  0
 14 15  1  0  0  0
 18 24  1  0  0  0
 19 25  1  0  0  0
 20 21  1  0  0  0
 22 23  2  0  0  0
 26 27  1  0  0  0
M  END
> <minimizedAffinity>
-8.77580

$$$$
CHEMBL4292627


 29 33  0  0  0  0  0  0  0  0999 V2000
   -4.0723   18.5113   -6.2715 C   0  0  0  0  0  0  0  0  0  0  0  0
   -2.8641   18.1699   -5.3818 C   0  0  0  0  0  0  0  0  0  0  0  0
   -2.1863   20.0136   -6.7783 C   0  0  0  0  0  0  0  0  0  0  0  0
   -3.6537   19.7595   -7.0215 C   0  0  0  0  0  0  0  0  0  0  0  0
   -4.6039   20.9483   -7.0559 C   0  0  0  0  0  0  0  0  0  0  0  0
   -4.3104   20.2024   -8.3192 C   0  0  0  0  0  0  0  0  0  0  0  0
   -0.4168   18.9387   -5.4833 C   0  0  0  0  0  0  0  0  0  0  0  0
   -1.7447   18.9738   -5.8663 N   0  0  0  0  0  0  0  0  0  0  0  0
    0.3608   19.8601   -5.7345 O   0  0  0  0  0  0  0  0  0  0  0  0
    0.1323   17.7643   -4.7538 C   0  0  0  0  0  0  0  0  0  0  0  0
    1.3390   17.9116   -4.0539 C   0  0  0  0  0  0  0  0  0  0  0  0
    1.9345   16.8104   -3.4266 C   0  0  0  0  0  0  0  0  0  0  0  0
    1.3243   15.5536   -3.4905 C   0  0  0  0  0  0  0  0  0  0  0  0
    0.1354   15.3981   -4.2092 C   0  0  0  0  0  0  0  0  0  0  0  0
   -0.4380   16.4923   -4.8640 C   0  0  0  0  0  0  0  0  0  0  0  0
    1.9248   14.4193   -2.8495 C   0  0  0  0  0  0  0  0  0  0  0  0
    2.4088   13.4962   -2.3414 N   0  0  0  0  0  0  0  0  0  0  0  0
   -3.5286   16.6352   -7.8257 C   0  0  0  0  0  0  0  0  0  0  0  0
   -4.5437   17.4016   -7.1267 N   0  0  0  0  0  0  0  0  0  0  0  0
   -5.8900   17.0906   -7.2881 C   0  0  0  0  0  0  0  0  0  0  0  0
   -7.8038   17.2018   -8.6605 C   0  0  0  0  0  0  0  0  0  0  0  0
   -8.0307   16.1381   -6.7436 C   0  0  0  0  0  0  0  0  0  0  0  0
   -6.7114   16.3739   -6.3670 C   0  0  0  0  0  0  0  0  0  0  0  0
   -6.5835   15.7710   -5.0731 C   0  0  0  0  0  0  0  0  0  0  0  0
   -7.7870   15.1898   -4.7324 C   0  0  0  0  0  0  0  0  0  0  0  0
   -6.5059   17.4801   -8.4403 N   0  0  0  0  0  0  0  0  0  0  0  0
   -8.6401   16.5209   -7.8719 N   0  0  0  0  0  0  0  0  0  0  0  0
   -8.6571   15.4233   -5.7601 N   0  0  0  0  0  0  0  0  0  0  0  0
   -9.6210   15.1266   -5.8115 H   0  0  0  0  0  0  0  0  0  0  0  0
 18 19  1  0  0  0
  1 19  1  0  0  0
  1  2  1  0  0  0
  2  8  1  0  0  0
  3  8  1  0  0  0
  3  4  1  0  0  0
  4  5  1  0  0  0
  4  1  1  0  0  0
  5  6  1  0  0  0
  6  4  1  0  0  0
  7 10  1  0  0  0
 11 12  2  0  0  0
 13 14  2  0  0  0
 13 16  1  0  0  0
 15 10  2  0  0  0
 21 26  2  0  0  0
 22 27  2  0  0  0
 23 24  1  0  0  0
 23 20  2  0  0  0
 25 28  1  0  0  0
 19 20  1  0  0  0
  8  7  1  0  0  0
 28 22  1  0  0  0
  7  9  2  0  0  0
 10 11  1  0  0  0
 12 13  1  0  0  0
 14 15  1  0  0  0
 20 26  1  0  0  0
 21 27  1  0  0  0
 22 23  1  0  0  0
 24 25  2  0  0  0
 16 17  3  0  0  0
 28 29  1  0  0  0
M  END
> <minimizedAffinity>
-9.40656

$$$$
CHEMBL4292627


 29 33  0  0  0  0  0  0  0  0999 V2000
   -1.4808   16.8390   -5.8259 C   0  0  0  0  0  0  0  0  0  0  0  0
   -2.6616   17.1258   -6.7700 C   0  0  0  0  0  0  0  0  0  0  0  0
   -1.8115   19.2686   -6.0667 C   0  0  0  0  0  0  0  0  0  0  0  0
   -0.8898   18.2021   -5.5284 C   0  0  0  0  0  0  0  0  0  0  0  0
    0.6132   18.3973   -5.6706 C   0  0  0  0  0  0  0  0  0  0  0  0
   -0.0154   18.4762   -4.3152 C   0  0  0  0  0  0  0  0  0  0  0  0
   -3.9290   19.2986   -7.2829 C   0  0  0  0  0  0  0  0  0  0  0  0
   -2.9040   18.5654   -6.7146 N   0  0  0  0  0  0  0  0  0  0  0  0
   -3.8581   20.5198   -7.4257 O   0  0  0  0  0  0  0  0  0  0  0  0
   -5.1781   18.6313   -7.7381 C   0  0  0  0  0  0  0  0  0  0  0  0
   -5.8613   19.1640   -8.8414 C   0  0  0  0  0  0  0  0  0  0  0  0
   -7.0853   18.6193   -9.2488 C   0  0  0  0  0  0  0  0  0  0  0  0
   -7.6331   17.5336   -8.5580 C   0  0  0  0  0  0  0  0  0  0  0  0
   -6.9678   17.0173   -7.4422 C   0  0  0  0  0  0  0  0  0  0  0  0
   -5.7636   17.5861   -7.0168 C   0  0  0  0  0  0  0  0  0  0  0  0
   -8.8854   16.9667   -8.9683 C   0  0  0  0  0  0  0  0  0  0  0  0
   -9.8917   16.4993   -9.3050 N   0  0  0  0  0  0  0  0  0  0  0  0
   -2.8109   16.5965   -3.7275 C   0  0  0  0  0  0  0  0  0  0  0  0
   -1.8238   16.0369   -4.6326 N   0  0  0  0  0  0  0  0  0  0  0  0
   -1.2352   14.8079   -4.3527 C   0  0  0  0  0  0  0  0  0  0  0  0
   -1.4374   12.4589   -4.3685 C   0  0  0  0  0  0  0  0  0  0  0  0
    0.4842   13.2743   -3.6612 C   0  0  0  0  0  0  0  0  0  0  0  0
    0.0769   14.5943   -3.8337 C   0  0  0  0  0  0  0  0  0  0  0  0
    1.1937   15.3841   -3.4059 C   0  0  0  0  0  0  0  0  0  0  0  0
    2.2146   14.5397   -3.0224 C   0  0  0  0  0  0  0  0  0  0  0  0
   -1.9537   13.6780   -4.6089 N   0  0  0  0  0  0  0  0  0  0  0  0
   -0.2186   12.1626   -3.9084 N   0  0  0  0  0  0  0  0  0  0  0  0
    1.7656   13.2590   -3.1834 N   0  0  0  0  0  0  0  0  0  0  0  0
    2.2792   12.4122   -2.9864 H   0  0  0  0  0  0  0  0  0  0  0  0
 18 19  1  0  0  0
  1 19  1  0  0  0
  1  2  1  0  0  0
  2  8  1  0  0  0
  3  8  1  0  0  0
  3  4  1  0  0  0
  4  5  1  0  0  0
  4  1  1  0  0  0
  5  6  1  0  0  0
  6  4  1  0  0  0
  7 10  1  0  0  0
 11 12  2  0  0  0
 13 14  2  0  0  0
 13 16  1  0  0  0
 15 10  2  0  0  0
 21 26  2  0  0  0
 22 27  2  0  0  0
 23 24  1  0  0  0
 23 20  2  0  0  0
 25 28  1  0  0  0
 19 20  1  0  0  0
  8  7  1  0  0  0
 28 22  1  0  0  0
  7  9  2  0  0  0
 10 11  1  0  0  0
 12 13  1  0  0  0
 14 15  1  0  0  0
 20 26  1  0  0  0
 21 27  1  0  0  0
 22 23  1  0  0  0
 24 25  2  0  0  0
 16 17  3  0  0  0
 28 29  1  0  0  0
M  END
> <minimizedAffinity>
-9.22852

$$$$
CHEMBL4292627


 29 33  0  0  0  0  0  0  0  0999 V2000
   -2.5669   15.8108   -6.0282 C   0  0  0  0  0  0  0  0  0  0  0  0
   -1.2034   16.3220   -5.5311 C   0  0  0  0  0  0  0  0  0  0  0  0
   -1.4119   14.0534   -4.7444 C   0  0  0  0  0  0  0  0  0  0  0  0
   -2.5904   14.3463   -5.6400 C   0  0  0  0  0  0  0  0  0  0  0  0
   -2.9836   13.3153   -6.6887 C   0  0  0  0  0  0  0  0  0  0  0  0
   -3.8771   13.5466   -5.5112 C   0  0  0  0  0  0  0  0  0  0  0  0
    0.4606   15.3359   -3.8430 C   0  0  0  0  0  0  0  0  0  0  0  0
   -0.6710   15.2972   -4.6362 N   0  0  0  0  0  0  0  0  0  0  0  0
    0.9681   14.3148   -3.3777 O   0  0  0  0  0  0  0  0  0  0  0  0
    1.1089   16.6321   -3.5076 C   0  0  0  0  0  0  0  0  0  0  0  0
    2.4015   16.6164   -2.9630 C   0  0  0  0  0  0  0  0  0  0  0  0
    3.0135   17.8072   -2.5531 C   0  0  0  0  0  0  0  0  0  0  0  0
    2.3384   19.0245   -2.6896 C   0  0  0  0  0  0  0  0  0  0  0  0
    1.0401   19.0406   -3.2076 C   0  0  0  0  0  0  0  0  0  0  0  0
    0.4185   17.8458   -3.5831 C   0  0  0  0  0  0  0  0  0  0  0  0
    2.9571   20.2505   -2.2748 C   0  0  0  0  0  0  0  0  0  0  0  0
    3.4670   21.2385   -1.9456 N   0  0  0  0  0  0  0  0  0  0  0  0
   -3.7865   16.9036   -4.1442 C   0  0  0  0  0  0  0  0  0  0  0  0
   -3.7293   16.5957   -5.5614 N   0  0  0  0  0  0  0  0  0  0  0  0
   -4.7453   17.0207   -6.4113 C   0  0  0  0  0  0  0  0  0  0  0  0
   -5.3803   18.4037   -8.2121 C   0  0  0  0  0  0  0  0  0  0  0  0
   -6.9450   17.0919   -7.3822 C   0  0  0  0  0  0  0  0  0  0  0  0
   -6.0951   16.5573   -6.4179 C   0  0  0  0  0  0  0  0  0  0  0  0
   -6.9070   15.6345   -5.6809 C   0  0  0  0  0  0  0  0  0  0  0  0
   -8.1752   15.6268   -6.2231 C   0  0  0  0  0  0  0  0  0  0  0  0
   -4.4442   17.9581   -7.3544 N   0  0  0  0  0  0  0  0  0  0  0  0
   -6.6547   18.0140   -8.3076 N   0  0  0  0  0  0  0  0  0  0  0  0
   -8.1811   16.5202   -7.2573 N   0  0  0  0  0  0  0  0  0  0  0  0
   -8.9644   16.7448   -7.8538 H   0  0  0  0  0  0  0  0  0  0  0  0
 18 19  1  0  0  0
  1 19  1  0  0  0
  1  2  1  0  0  0
  2  8  1  0  0  0
  3  8  1  0  0  0
  3  4  1  0  0  0
  4  5  1  0  0  0
  4  1  1  0  0  0
  5  6  1  0  0  0
  6  4  1  0  0  0
  7 10  1  0  0  0
 11 12  2  0  0  0
 13 14  2  0  0  0
 13 16  1  0  0  0
 15 10  2  0  0  0
 21 26  2  0  0  0
 22 27  2  0  0  0
 23 24  1  0  0  0
 23 20  2  0  0  0
 25 28  1  0  0  0
 19 20  1  0  0  0
  8  7  1  0  0  0
 28 22  1  0  0  0
  7  9  2  0  0  0
 10 11  1  0  0  0
 12 13  1  0  0  0
 14 15  1  0  0  0
 20 26  1  0  0  0
 21 27  1  0  0  0
 22 23  1  0  0  0
 24 25  2  0  0  0
 16 17  3  0  0  0
 28 29  1  0  0  0
M  END
> <minimizedAffinity>
-9.12953

$$$$
CHEMBL4292627


 29 33  0  0  0  0  0  0  0  0999 V2000
   -1.1983   17.3283   -5.7731 C   0  0  0  0  0  0  0  0  0  0  0  0
   -2.4034   17.5242   -6.7096 C   0  0  0  0  0  0  0  0  0  0  0  0
   -1.7685   19.7193   -5.9429 C   0  0  0  0  0  0  0  0  0  0  0  0
   -0.7446   18.7340   -5.4352 C   0  0  0  0  0  0  0  0  0  0  0  0
    0.7314   19.0812   -5.5701 C   0  0  0  0  0  0  0  0  0  0  0  0
    0.1006   19.0577   -4.2137 C   0  0  0  0  0  0  0  0  0  0  0  0
   -3.8808   19.5750   -7.1598 C   0  0  0  0  0  0  0  0  0  0  0  0
   -2.7872   18.9305   -6.6123 N   0  0  0  0  0  0  0  0  0  0  0  0
   -3.9315   20.8008   -7.2667 O   0  0  0  0  0  0  0  0  0  0  0  0
   -5.0586   18.8008   -7.6357 C   0  0  0  0  0  0  0  0  0  0  0  0
   -5.7436   19.2507   -8.7741 C   0  0  0  0  0  0  0  0  0  0  0  0
   -6.9074   18.6019   -9.2048 C   0  0  0  0  0  0  0  0  0  0  0  0
   -7.3924   17.4943   -8.5020 C   0  0  0  0  0  0  0  0  0  0  0  0
   -6.7269   17.0596   -7.3521 C   0  0  0  0  0  0  0  0  0  0  0  0
   -5.5852   17.7313   -6.9048 C   0  0  0  0  0  0  0  0  0  0  0  0
   -8.5826   16.8210   -8.9358 C   0  0  0  0  0  0  0  0  0  0  0  0
   -9.5502   16.2806   -9.2766 N   0  0  0  0  0  0  0  0  0  0  0  0
   -2.6787   16.7117   -3.8603 C   0  0  0  0  0  0  0  0  0  0  0  0
   -1.4579   16.4616   -4.6042 N   0  0  0  0  0  0  0  0  0  0  0  0
   -0.5861   15.4557   -4.2002 C   0  0  0  0  0  0  0  0  0  0  0  0
    1.4720   14.8958   -3.1953 C   0  0  0  0  0  0  0  0  0  0  0  0
    0.1895   13.2122   -3.8105 C   0  0  0  0  0  0  0  0  0  0  0  0
   -0.8019   14.0495   -4.3144 C   0  0  0  0  0  0  0  0  0  0  0  0
   -1.8076   13.1653   -4.8250 C   0  0  0  0  0  0  0  0  0  0  0  0
   -1.4116   11.8636   -4.5987 C   0  0  0  0  0  0  0  0  0  0  0  0
    0.5903   15.8211   -3.6159 N   0  0  0  0  0  0  0  0  0  0  0  0
    1.3466   13.5663   -3.2391 N   0  0  0  0  0  0  0  0  0  0  0  0
   -0.1934   11.9104   -3.9810 N   0  0  0  0  0  0  0  0  0  0  0  0
    0.3622   11.1204   -3.6859 H   0  0  0  0  0  0  0  0  0  0  0  0
 18 19  1  0  0  0
  1 19  1  0  0  0
  1  2  1  0  0  0
  2  8  1  0  0  0
  3  8  1  0  0  0
  3  4  1  0  0  0
  4  5  1  0  0  0
  4  1  1  0  0  0
  5  6  1  0  0  0
  6  4  1  0  0  0
  7 10  1  0  0  0
 11 12  2  0  0  0
 13 14  2  0  0  0
 13 16  1  0  0  0
 15 10  2  0  0  0
 21 26  2  0  0  0
 22 27  2  0  0  0
 23 24  1  0  0  0
 23 20  2  0  0  0
 25 28  1  0  0  0
 19 20  1  0  0  0
  8  7  1  0  0  0
 28 22  1  0  0  0
  7  9  2  0  0  0
 10 11  1  0  0  0
 12 13  1  0  0  0
 14 15  1  0  0  0
 20 26  1  0  0  0
 21 27  1  0  0  0
 22 23  1  0  0  0
 24 25  2  0  0  0
 16 17  3  0  0  0
 28 29  1  0  0  0
M  END
> <minimizedAffinity>
-8.73720

$$$$
CHEMBL4292627


 29 33  0  0  0  0  0  0  0  0999 V2000
   -4.1390   18.8008   -6.2082 C   0  0  0  0  0  0  0  0  0  0  0  0
   -2.9234   18.3827   -5.3624 C   0  0  0  0  0  0  0  0  0  0  0  0
   -2.1704   20.1529   -6.8145 C   0  0  0  0  0  0  0  0  0  0  0  0
   -3.6613   20.0048   -6.9944 C   0  0  0  0  0  0  0  0  0  0  0  0
   -4.5223   21.2601   -7.0096 C   0  0  0  0  0  0  0  0  0  0  0  0
   -4.3367   20.4781   -8.2716 C   0  0  0  0  0  0  0  0  0  0  0  0
   -0.4326   18.9671   -5.5745 C   0  0  0  0  0  0  0  0  0  0  0  0
   -1.7690   19.0953   -5.9044 N   0  0  0  0  0  0  0  0  0  0  0  0
    0.3994   19.8252   -5.8715 O   0  0  0  0  0  0  0  0  0  0  0  0
    0.0585   17.7649   -4.8488 C   0  0  0  0  0  0  0  0  0  0  0  0
    1.2501   17.8625   -4.1152 C   0  0  0  0  0  0  0  0  0  0  0  0
    1.7927   16.7336   -3.4893 C   0  0  0  0  0  0  0  0  0  0  0  0
    1.1442   15.4984   -3.5887 C   0  0  0  0  0  0  0  0  0  0  0  0
   -0.0293   15.3922   -4.3409 C   0  0  0  0  0  0  0  0  0  0  0  0
   -0.5493   16.5139   -4.9937 C   0  0  0  0  0  0  0  0  0  0  0  0
    1.6904   14.3359   -2.9496 C   0  0  0  0  0  0  0  0  0  0  0  0
    2.1425   13.3988   -2.4380 N   0  0  0  0  0  0  0  0  0  0  0  0
   -6.0106   17.9858   -7.6447 C   0  0  0  0  0  0  0  0  0  0  0  0
   -4.7254   17.7179   -7.0258 N   0  0  0  0  0  0  0  0  0  0  0  0
   -4.1084   16.4835   -7.2006 C   0  0  0  0  0  0  0  0  0  0  0  0
   -2.2897   15.2811   -8.0981 C   0  0  0  0  0  0  0  0  0  0  0  0
   -3.7716   14.1141   -6.9580 C   0  0  0  0  0  0  0  0  0  0  0  0
   -4.5643   15.2283   -6.6972 C   0  0  0  0  0  0  0  0  0  0  0  0
   -5.6731   14.7240   -5.9421 C   0  0  0  0  0  0  0  0  0  0  0  0
   -5.5059   13.3672   -5.7590 C   0  0  0  0  0  0  0  0  0  0  0  0
   -2.9400   16.4426   -7.9019 N   0  0  0  0  0  0  0  0  0  0  0  0
   -2.6260   14.0688   -7.6483 N   0  0  0  0  0  0  0  0  0  0  0  0
   -4.3438   13.0122   -6.3844 N   0  0  0  0  0  0  0  0  0  0  0  0
   -3.9454   12.0855   -6.4329 H   0  0  0  0  0  0  0  0  0  0  0  0
 18 19  1  0  0  0
  1 19  1  0  0  0
  1  2  1  0  0  0
  2  8  1  0  0  0
  3  8  1  0  0  0
  3  4  1  0  0  0
  4  5  1  0  0  0
  4  1  1  0  0  0
  5  6  1  0  0  0
  6  4  1  0  0  0
  7 10  1  0  0  0
 11 12  2  0  0  0
 13 14  2  0  0  0
 13 16  1  0  0  0
 15 10  2  0  0  0
 21 26  2  0  0  0
 22 27  2  0  0  0
 23 24  1  0  0  0
 23 20  2  0  0  0
 25 28  1  0  0  0
 19 20  1  0  0  0
  8  7  1  0  0  0
 28 22  1  0  0  0
  7  9  2  0  0  0
 10 11  1  0  0  0
 12 13  1  0  0  0
 14 15  1  0  0  0
 20 26  1  0  0  0
 21 27  1  0  0  0
 22 23  1  0  0  0
 24 25  2  0  0  0
 16 17  3  0  0  0
 28 29  1  0  0  0
M  END
> <minimizedAffinity>
-8.72397

$$$$
CHEMBL4292627


 29 33  0  0  0  0  0  0  0  0999 V2000
   -2.6741   16.8325   -6.6211 C   0  0  0  0  0  0  0  0  0  0  0  0
   -3.8456   17.2412   -7.5311 C   0  0  0  0  0  0  0  0  0  0  0  0
   -2.7734   19.2850   -6.8365 C   0  0  0  0  0  0  0  0  0  0  0  0
   -1.9459   18.1291   -6.3304 C   0  0  0  0  0  0  0  0  0  0  0  0
   -0.4353   18.1791   -6.5116 C   0  0  0  0  0  0  0  0  0  0  0  0
   -1.0176   18.3059   -5.1393 C   0  0  0  0  0  0  0  0  0  0  0  0
   -4.9089   19.5314   -7.9951 C   0  0  0  0  0  0  0  0  0  0  0  0
   -3.9456   18.6970   -7.4596 N   0  0  0  0  0  0  0  0  0  0  0  0
   -4.7236   20.7412   -8.1314 O   0  0  0  0  0  0  0  0  0  0  0  0
   -6.2285   18.9925   -8.4211 C   0  0  0  0  0  0  0  0  0  0  0  0
   -7.1050   19.8355   -9.1201 C   0  0  0  0  0  0  0  0  0  0  0  0
   -8.3895   19.3962   -9.4635 C   0  0  0  0  0  0  0  0  0  0  0  0
   -8.8054   18.1073   -9.1140 C   0  0  0  0  0  0  0  0  0  0  0  0
   -7.9438   17.2743   -8.3945 C   0  0  0  0  0  0  0  0  0  0  0  0
   -6.6750   17.7287   -8.0225 C   0  0  0  0  0  0  0  0  0  0  0  0
  -10.1184   17.6465   -9.4628 C   0  0  0  0  0  0  0  0  0  0  0  0
  -11.1788   17.2797   -9.7552 N   0  0  0  0  0  0  0  0  0  0  0  0
   -3.9598   16.7035   -4.4854 C   0  0  0  0  0  0  0  0  0  0  0  0
   -3.0621   16.0563   -5.4245 N   0  0  0  0  0  0  0  0  0  0  0  0
   -2.5942   14.7707   -5.1725 C   0  0  0  0  0  0  0  0  0  0  0  0
   -2.9049   12.4515   -5.4612 C   0  0  0  0  0  0  0  0  0  0  0  0
   -1.1039   13.0702   -4.3515 C   0  0  0  0  0  0  0  0  0  0  0  0
   -1.4085   14.4245   -4.4575 C   0  0  0  0  0  0  0  0  0  0  0  0
   -0.3494   15.0965   -3.7644 C   0  0  0  0  0  0  0  0  0  0  0  0
    0.5435   14.1549   -3.2967 C   0  0  0  0  0  0  0  0  0  0  0  0
   -3.3095   13.7188   -5.6629 N   0  0  0  0  0  0  0  0  0  0  0  0
   -1.8045   12.0346   -4.8285 N   0  0  0  0  0  0  0  0  0  0  0  0
    0.0686   12.9267   -3.6623 N   0  0  0  0  0  0  0  0  0  0  0  0
    0.4964   12.0334   -3.4658 H   0  0  0  0  0  0  0  0  0  0  0  0
 18 19  1  0  0  0
  1 19  1  0  0  0
  1  2  1  0  0  0
  2  8  1  0  0  0
  3  8  1  0  0  0
  3  4  1  0  0  0
  4  5  1  0  0  0
  4  1  1  0  0  0
  5  6  1  0  0  0
  6  4  1  0  0  0
  7 10  1  0  0  0
 11 12  2  0  0  0
 13 14  2  0  0  0
 13 16  1  0  0  0
 15 10  2  0  0  0
 21 26  2  0  0  0
 22 27  2  0  0  0
 23 24  1  0  0  0
 23 20  2  0  0  0
 25 28  1  0  0  0
 19 20  1  0  0  0
  8  7  1  0  0  0
 28 22  1  0  0  0
  7  9  2  0  0  0
 10 11  1  0  0  0
 12 13  1  0  0  0
 14 15  1  0  0  0
 20 26  1  0  0  0
 21 27  1  0  0  0
 22 23  1  0  0  0
 24 25  2  0  0  0
 16 17  3  0  0  0
 28 29  1  0  0  0
M  END
> <minimizedAffinity>
-8.59921

$$$$
CHEMBL4292627


 29 33  0  0  0  0  0  0  0  0999 V2000
   -0.6889   16.8607   -5.3448 C   0  0  0  0  0  0  0  0  0  0  0  0
   -1.4057   17.9412   -6.1733 C   0  0  0  0  0  0  0  0  0  0  0  0
    0.1169   19.1003   -4.7079 C   0  0  0  0  0  0  0  0  0  0  0  0
    0.3550   17.6186   -4.5500 C   0  0  0  0  0  0  0  0  0  0  0  0
    1.7886   17.1067   -4.5456 C   0  0  0  0  0  0  0  0  0  0  0  0
    0.9882   17.0681   -3.2822 C   0  0  0  0  0  0  0  0  0  0  0  0
   -1.4764   20.4953   -5.9240 C   0  0  0  0  0  0  0  0  0  0  0  0
   -1.0103   19.2314   -5.6135 N   0  0  0  0  0  0  0  0  0  0  0  0
   -0.8587   21.5145   -5.6136 O   0  0  0  0  0  0  0  0  0  0  0  0
   -2.7659   20.6735   -6.6440 C   0  0  0  0  0  0  0  0  0  0  0  0
   -3.9559   20.6766   -5.9013 C   0  0  0  0  0  0  0  0  0  0  0  0
   -5.1956   20.7545   -6.5476 C   0  0  0  0  0  0  0  0  0  0  0  0
   -5.2542   20.8348   -7.9427 C   0  0  0  0  0  0  0  0  0  0  0  0
   -4.0713   20.8054   -8.6870 C   0  0  0  0  0  0  0  0  0  0  0  0
   -2.8369   20.6920   -8.0405 C   0  0  0  0  0  0  0  0  0  0  0  0
   -6.5190   20.9171   -8.6146 C   0  0  0  0  0  0  0  0  0  0  0  0
   -7.5449   20.9737   -9.1521 N   0  0  0  0  0  0  0  0  0  0  0  0
   -2.5947   16.6791   -3.7430 C   0  0  0  0  0  0  0  0  0  0  0  0
   -1.5840   16.0053   -4.5373 N   0  0  0  0  0  0  0  0  0  0  0  0
   -1.4789   14.6185   -4.5055 C   0  0  0  0  0  0  0  0  0  0  0  0
   -0.2541   12.7351   -3.7903 C   0  0  0  0  0  0  0  0  0  0  0  0
   -2.1223   12.3325   -4.8882 C   0  0  0  0  0  0  0  0  0  0  0  0
   -2.4010   13.6847   -5.0663 C   0  0  0  0  0  0  0  0  0  0  0  0
   -3.6247   13.7145   -5.8117 C   0  0  0  0  0  0  0  0  0  0  0  0
   -4.0425   12.4186   -6.0323 C   0  0  0  0  0  0  0  0  0  0  0  0
   -0.4084   14.0697   -3.8639 N   0  0  0  0  0  0  0  0  0  0  0  0
   -1.0717   11.7895   -4.2620 N   0  0  0  0  0  0  0  0  0  0  0  0
   -3.1161   11.5900   -5.4641 N   0  0  0  0  0  0  0  0  0  0  0  0
   -3.1361   10.5804   -5.4567 H   0  0  0  0  0  0  0  0  0  0  0  0
 18 19  1  0  0  0
  1 19  1  0  0  0
  1  2  1  0  0  0
  2  8  1  0  0  0
  3  8  1  0  0  0
  3  4  1  0  0  0
  4  5  1  0  0  0
  4  1  1  0  0  0
  5  6  1  0  0  0
  6  4  1  0  0  0
  7 10  1  0  0  0
 11 12  2  0  0  0
 13 14  2  0  0  0
 13 16  1  0  0  0
 15 10  2  0  0  0
 21 26  2  0  0  0
 22 27  2  0  0  0
 23 24  1  0  0  0
 23 20  2  0  0  0
 25 28  1  0  0  0
 19 20  1  0  0  0
  8  7  1  0  0  0
 28 22  1  0  0  0
  7  9  2  0  0  0
 10 11  1  0  0  0
 12 13  1  0  0  0
 14 15  1  0  0  0
 20 26  1  0  0  0
 21 27  1  0  0  0
 22 23  1  0  0  0
 24 25  2  0  0  0
 16 17  3  0  0  0
 28 29  1  0  0  0
M  END
> <minimizedAffinity>
-8.55753

$$$$
CHEMBL4292627


 29 33  0  0  0  0  0  0  0  0999 V2000
   -0.9838   16.7935   -5.5152 C   0  0  0  0  0  0  0  0  0  0  0  0
   -1.5118   18.0080   -6.2988 C   0  0  0  0  0  0  0  0  0  0  0  0
    0.0587   18.8655   -4.6840 C   0  0  0  0  0  0  0  0  0  0  0  0
    0.1002   17.3584   -4.6199 C   0  0  0  0  0  0  0  0  0  0  0  0
    1.4559   16.6671   -4.5830 C   0  0  0  0  0  0  0  0  0  0  0  0
    0.5869   16.6510   -3.3652 C   0  0  0  0  0  0  0  0  0  0  0  0
   -1.2763   20.5288   -5.8734 C   0  0  0  0  0  0  0  0  0  0  0  0
   -0.9903   19.1982   -5.6310 N   0  0  0  0  0  0  0  0  0  0  0  0
   -0.5544   21.4381   -5.4626 O   0  0  0  0  0  0  0  0  0  0  0  0
   -2.4906   20.9171   -6.6400 C   0  0  0  0  0  0  0  0  0  0  0  0
   -3.5556   21.5185   -5.9531 C   0  0  0  0  0  0  0  0  0  0  0  0
   -4.7497   21.8202   -6.6194 C   0  0  0  0  0  0  0  0  0  0  0  0
   -4.8857   21.5269   -7.9801 C   0  0  0  0  0  0  0  0  0  0  0  0
   -3.8359   20.9037   -8.6612 C   0  0  0  0  0  0  0  0  0  0  0  0
   -2.6583   20.5717   -7.9846 C   0  0  0  0  0  0  0  0  0  0  0  0
   -6.1039   21.8338   -8.6727 C   0  0  0  0  0  0  0  0  0  0  0  0
   -7.0947   22.0796   -9.2226 N   0  0  0  0  0  0  0  0  0  0  0  0
   -2.7884   16.7023   -3.7930 C   0  0  0  0  0  0  0  0  0  0  0  0
   -2.0232   16.0105   -4.8140 N   0  0  0  0  0  0  0  0  0  0  0  0
   -2.2703   14.6686   -5.0847 C   0  0  0  0  0  0  0  0  0  0  0  0
   -3.6491   13.0773   -6.1455 C   0  0  0  0  0  0  0  0  0  0  0  0
   -1.8869   12.2939   -5.0786 C   0  0  0  0  0  0  0  0  0  0  0  0
   -1.4779   13.5585   -4.6646 C   0  0  0  0  0  0  0  0  0  0  0  0
   -0.2943   13.3285   -3.8899 C   0  0  0  0  0  0  0  0  0  0  0  0
   -0.0244   11.9759   -3.8813 C   0  0  0  0  0  0  0  0  0  0  0  0
   -3.3605   14.3558   -5.8412 N   0  0  0  0  0  0  0  0  0  0  0  0
   -2.9576   11.9820   -5.8183 N   0  0  0  0  0  0  0  0  0  0  0  0
   -1.0041   11.3608   -4.6089 N   0  0  0  0  0  0  0  0  0  0  0  0
   -1.0888   10.3705   -4.7876 H   0  0  0  0  0  0  0  0  0  0  0  0
 18 19  1  0  0  0
  1 19  1  0  0  0
  1  2  1  0  0  0
  2  8  1  0  0  0
  3  8  1  0  0  0
  3  4  1  0  0  0
  4  5  1  0  0  0
  4  1  1  0  0  0
  5  6  1  0  0  0
  6  4  1  0  0  0
  7 10  1  0  0  0
 11 12  2  0  0  0
 13 14  2  0  0  0
 13 16  1  0  0  0
 15 10  2  0  0  0
 21 26  2  0  0  0
 22 27  2  0  0  0
 23 24  1  0  0  0
 23 20  2  0  0  0
 25 28  1  0  0  0
 19 20  1  0  0  0
  8  7  1  0  0  0
 28 22  1  0  0  0
  7  9  2  0  0  0
 10 11  1  0  0  0
 12 13  1  0  0  0
 14 15  1  0  0  0
 20 26  1  0  0  0
 21 27  1  0  0  0
 22 23  1  0  0  0
 24 25  2  0  0  0
 16 17  3  0  0  0
 28 29  1  0  0  0
M  END
> <minimizedAffinity>
-8.53925

$$$$
CHEMBL4292627


 29 33  0  0  0  0  0  0  0  0999 V2000
    0.5738   15.9235   -4.4053 C   0  0  0  0  0  0  0  0  0  0  0  0
    0.7092   17.4262   -4.7075 C   0  0  0  0  0  0  0  0  0  0  0  0
    2.2001   16.9602   -2.8720 C   0  0  0  0  0  0  0  0  0  0  0  0
    1.6284   15.6491   -3.3526 C   0  0  0  0  0  0  0  0  0  0  0  0
    2.5716   14.4703   -3.5485 C   0  0  0  0  0  0  0  0  0  0  0  0
    1.5792   14.4422   -2.4292 C   0  0  0  0  0  0  0  0  0  0  0  0
    1.8525   19.3184   -3.4025 C   0  0  0  0  0  0  0  0  0  0  0  0
    1.5420   17.9943   -3.6501 N   0  0  0  0  0  0  0  0  0  0  0  0
    2.7973   19.6450   -2.6832 O   0  0  0  0  0  0  0  0  0  0  0  0
    1.0375   20.4131   -3.9945 C   0  0  0  0  0  0  0  0  0  0  0  0
    0.8444   21.5859   -3.2497 C   0  0  0  0  0  0  0  0  0  0  0  0
    0.0137   22.6046   -3.7324 C   0  0  0  0  0  0  0  0  0  0  0  0
   -0.6269   22.4595   -4.9672 C   0  0  0  0  0  0  0  0  0  0  0  0
   -0.4575   21.2809   -5.6996 C   0  0  0  0  0  0  0  0  0  0  0  0
    0.3445   20.2513   -5.1983 C   0  0  0  0  0  0  0  0  0  0  0  0
   -1.4784   23.4978   -5.4720 C   0  0  0  0  0  0  0  0  0  0  0  0
   -2.1701   24.3299   -5.8888 N   0  0  0  0  0  0  0  0  0  0  0  0
   -1.5428   16.3477   -3.1519 C   0  0  0  0  0  0  0  0  0  0  0  0
   -0.7915   15.4856   -4.0457 N   0  0  0  0  0  0  0  0  0  0  0  0
   -1.3530   14.3012   -4.5115 C   0  0  0  0  0  0  0  0  0  0  0  0
   -1.2298   11.9489   -4.6112 C   0  0  0  0  0  0  0  0  0  0  0  0
   -2.9545   12.8852   -5.6145 C   0  0  0  0  0  0  0  0  0  0  0  0
   -2.5475   14.1743   -5.2822 C   0  0  0  0  0  0  0  0  0  0  0  0
   -3.5369   15.0345   -5.8609 C   0  0  0  0  0  0  0  0  0  0  0  0
   -4.4909   14.2581   -6.4849 C   0  0  0  0  0  0  0  0  0  0  0  0
   -0.7319   13.1287   -4.1983 N   0  0  0  0  0  0  0  0  0  0  0  0
   -2.3465   11.7320   -5.3119 N   0  0  0  0  0  0  0  0  0  0  0  0
   -4.1206   12.9523   -6.3259 N   0  0  0  0  0  0  0  0  0  0  0  0
   -4.6127   12.1409   -6.6715 H   0  0  0  0  0  0  0  0  0  0  0  0
 18 19  1  0  0  0
  1 19  1  0  0  0
  1  2  1  0  0  0
  2  8  1  0  0  0
  3  8  1  0  0  0
  3  4  1  0  0  0
  4  5  1  0  0  0
  4  1  1  0  0  0
  5  6  1  0  0  0
  6  4  1  0  0  0
  7 10  1  0  0  0
 11 12  2  0  0  0
 13 14  2  0  0  0
 13 16  1  0  0  0
 15 10  2  0  0  0
 21 26  2  0  0  0
 22 27  2  0  0  0
 23 24  1  0  0  0
 23 20  2  0  0  0
 25 28  1  0  0  0
 19 20  1  0  0  0
  8  7  1  0  0  0
 28 22  1  0  0  0
  7  9  2  0  0  0
 10 11  1  0  0  0
 12 13  1  0  0  0
 14 15  1  0  0  0
 20 26  1  0  0  0
 21 27  1  0  0  0
 22 23  1  0  0  0
 24 25  2  0  0  0
 16 17  3  0  0  0
 28 29  1  0  0  0
M  END
> <minimizedAffinity>
-8.29305

$$$$
CHEMBL1630793


 34 38  0  0  0  0  0  0  0  0999 V2000
   -4.8999   18.7317   -8.2979 N   0  0  0  0  0  0  0  0  0  0  0  0
   -4.3891   21.1595   -7.9018 C   0  0  0  0  0  0  0  0  0  0  0  0
   -3.9581   19.8239   -8.5521 C   0  0  0  0  0  0  0  0  0  0  0  0
   -6.2548   19.0025   -8.7651 C   0  0  0  0  0  0  0  0  0  0  0  0
   -6.8211   20.2454   -8.0865 C   0  0  0  0  0  0  0  0  0  0  0  0
   -5.8909   21.4786   -8.1743 C   0  0  0  0  0  0  0  0  0  0  0  0
   -6.0620   22.1358   -9.5593 C   0  0  0  0  0  0  0  0  0  0  0  0
   -4.6350   17.5170   -7.6805 C   0  0  0  0  0  0  0  0  0  0  0  0
   -5.5124   16.6506   -7.5835 O   0  0  0  0  0  0  0  0  0  0  0  0
   -2.4737   15.5860   -5.6530 N   0  0  0  0  0  0  0  0  0  0  0  0
   -3.2475   17.2167   -7.1473 C   0  0  0  0  0  0  0  0  0  0  0  0
   -2.5811   16.0839   -7.9448 C   0  0  0  0  0  0  0  0  0  0  0  0
   -1.9720   15.1430   -6.9210 C   0  0  0  0  0  0  0  0  0  0  0  0
   -3.2932   16.6918   -5.7367 C   0  0  0  0  0  0  0  0  0  0  0  0
   -3.9034   17.1932   -4.8003 O   0  0  0  0  0  0  0  0  0  0  0  0
   -2.1274   14.9462   -4.4006 C   0  0  0  0  0  0  0  0  0  0  0  0
   -0.7031   15.2453   -3.9910 C   0  0  0  0  0  0  0  0  0  0  0  0
    0.1407   14.2069   -3.5666 C   0  0  0  0  0  0  0  0  0  0  0  0
    1.4546   14.4697   -3.1760 C   0  0  0  0  0  0  0  0  0  0  0  0
    1.9345   15.7769   -3.1835 C   0  0  0  0  0  0  0  0  0  0  0  0
    1.1022   16.8202   -3.5860 C   0  0  0  0  0  0  0  0  0  0  0  0
   -0.2093   16.5570   -3.9895 C   0  0  0  0  0  0  0  0  0  0  0  0
   -3.9767   21.2620   -6.4881 N   0  0  0  0  0  0  0  0  0  0  0  0
   -4.5997   20.4709   -5.4308 C   0  0  0  0  0  0  0  0  0  0  0  0
   -2.7532   23.2124   -5.9499 N   0  0  0  0  0  0  0  0  0  0  0  0
   -0.4437   23.3411   -5.3028 N   0  0  0  0  0  0  0  0  0  0  0  0
    0.6643   21.2416   -5.3031 N   0  0  0  0  0  0  0  0  0  0  0  0
   -1.6463   23.8623   -5.5568 C   0  0  0  0  0  0  0  0  0  0  0  0
   -0.4484   22.0149   -5.4798 C   0  0  0  0  0  0  0  0  0  0  0  0
    0.3640   19.9344   -5.5586 C   0  0  0  0  0  0  0  0  0  0  0  0
   -0.9693   19.8799   -5.9076 C   0  0  0  0  0  0  0  0  0  0  0  0
   -1.5153   21.2037   -5.8610 C   0  0  0  0  0  0  0  0  0  0  0  0
   -2.7610   21.8522   -6.1038 C   0  0  0  0  0  0  0  0  0  0  0  0
    1.5636   21.6141   -5.0355 H   0  0  0  0  0  0  0  0  0  0  0  0
 27 30  1  0  0  0
  1  8  1  0  0  0
 10 14  1  0  0  0
 28 26  2  0  0  0
 29 27  1  0  0  0
 31 32  1  0  0  0
 32 29  2  0  0  0
 33 23  1  0  0  0
 33 25  2  0  0  0
  2 23  1  0  0  0
  2  3  1  0  0  0
  3  1  1  0  0  0
  4  1  1  0  0  0
  4  5  1  0  0  0
  5  6  1  0  0  0
  6  7  1  0  0  0
  6  2  1  0  0  0
 11  8  1  0  0  0
 11 12  1  0  0  0
 11 14  1  0  0  0
 12 13  1  0  0  0
 13 10  1  0  0  0
 16 10  1  0  0  0
 16 17  1  0  0  0
 18 19  2  0  0  0
 20 21  2  0  0  0
 22 17  2  0  0  0
 24 23  1  0  0  0
 28 25  1  0  0  0
 29 26  1  0  0  0
 30 31  2  0  0  0
 32 33  1  0  0  0
  8  9  2  0  0  0
 14 15  2  0  0  0
 17 18  1  0  0  0
 19 20  1  0  0  0
 21 22  1  0  0  0
 27 34  1  0  0  0
M  END
> <minimizedAffinity>
-8.88656

$$$$
CHEMBL1630793


 34 38  0  0  0  0  0  0  0  0999 V2000
   -2.9803   19.5792   -6.0351 N   0  0  0  0  0  0  0  0  0  0  0  0
   -5.2291   20.0089   -7.0697 C   0  0  0  0  0  0  0  0  0  0  0  0
   -4.4213   19.6767   -5.7932 C   0  0  0  0  0  0  0  0  0  0  0  0
   -2.3941   20.7926   -6.5931 C   0  0  0  0  0  0  0  0  0  0  0  0
   -3.0464   21.1432   -7.9263 C   0  0  0  0  0  0  0  0  0  0  0  0
   -4.5919   21.1868   -7.8684 C   0  0  0  0  0  0  0  0  0  0  0  0
   -5.0316   22.5420   -7.2774 C   0  0  0  0  0  0  0  0  0  0  0  0
   -2.1573   18.4878   -5.7941 C   0  0  0  0  0  0  0  0  0  0  0  0
   -0.9375   18.5590   -5.9866 O   0  0  0  0  0  0  0  0  0  0  0  0
   -2.1283   14.9576   -5.5755 N   0  0  0  0  0  0  0  0  0  0  0  0
   -2.7386   17.1967   -5.2512 C   0  0  0  0  0  0  0  0  0  0  0  0
   -1.9535   16.7096   -4.0225 C   0  0  0  0  0  0  0  0  0  0  0  0
   -1.7218   15.2233   -4.2264 C   0  0  0  0  0  0  0  0  0  0  0  0
   -2.6082   16.0673   -6.2386 C   0  0  0  0  0  0  0  0  0  0  0  0
   -2.9309   16.1015   -7.4198 O   0  0  0  0  0  0  0  0  0  0  0  0
   -2.0655   13.6398   -6.1732 C   0  0  0  0  0  0  0  0  0  0  0  0
   -3.3528   12.8714   -5.9776 C   0  0  0  0  0  0  0  0  0  0  0  0
   -3.3184   11.4890   -5.7363 C   0  0  0  0  0  0  0  0  0  0  0  0
   -4.4991   10.7651   -5.5638 C   0  0  0  0  0  0  0  0  0  0  0  0
   -5.7300   11.4102   -5.6526 C   0  0  0  0  0  0  0  0  0  0  0  0
   -5.7799   12.7795   -5.9091 C   0  0  0  0  0  0  0  0  0  0  0  0
   -4.5982   13.5078   -6.0692 C   0  0  0  0  0  0  0  0  0  0  0  0
   -5.5426   18.8098   -7.8715 N   0  0  0  0  0  0  0  0  0  0  0  0
   -4.7415   18.4060   -9.0235 C   0  0  0  0  0  0  0  0  0  0  0  0
   -6.0859   17.2256   -6.2024 N   0  0  0  0  0  0  0  0  0  0  0  0
   -7.9704   15.7365   -6.1772 N   0  0  0  0  0  0  0  0  0  0  0  0
   -9.3359   15.8949   -8.1125 N   0  0  0  0  0  0  0  0  0  0  0  0
   -6.8624   16.2736   -5.6612 C   0  0  0  0  0  0  0  0  0  0  0  0
   -8.2603   16.2820   -7.3640 C   0  0  0  0  0  0  0  0  0  0  0  0
   -9.3765   16.6162   -9.2711 C   0  0  0  0  0  0  0  0  0  0  0  0
   -8.2997   17.4781   -9.2561 C   0  0  0  0  0  0  0  0  0  0  0  0
   -7.5684   17.2855   -8.0392 C   0  0  0  0  0  0  0  0  0  0  0  0
   -6.4008   17.8002   -7.4043 C   0  0  0  0  0  0  0  0  0  0  0  0
   -9.9792   15.1705   -7.8286 H   0  0  0  0  0  0  0  0  0  0  0  0
 27 30  1  0  0  0
  1  8  1  0  0  0
 10 14  1  0  0  0
 28 26  2  0  0  0
 29 27  1  0  0  0
 31 32  1  0  0  0
 32 29  2  0  0  0
 33 23  1  0  0  0
 33 25  2  0  0  0
  2 23  1  0  0  0
  2  3  1  0  0  0
  3  1  1  0  0  0
  4  1  1  0  0  0
  4  5  1  0  0  0
  5  6  1  0  0  0
  6  7  1  0  0  0
  6  2  1  0  0  0
 11  8  1  0  0  0
 11 12  1  0  0  0
 11 14  1  0  0  0
 12 13  1  0  0  0
 13 10  1  0  0  0
 16 10  1  0  0  0
 16 17  1  0  0  0
 18 19  2  0  0  0
 20 21  2  0  0  0
 22 17  2  0  0  0
 24 23  1  0  0  0
 28 25  1  0  0  0
 29 26  1  0  0  0
 30 31  2  0  0  0
 32 33  1  0  0  0
  8  9  2  0  0  0
 14 15  2  0  0  0
 17 18  1  0  0  0
 19 20  1  0  0  0
 21 22  1  0  0  0
 27 34  1  0  0  0
M  END
> <minimizedAffinity>
-8.59297

$$$$
CHEMBL1630793


 34 38  0  0  0  0  0  0  0  0999 V2000
   -4.4297   18.7204   -7.2333 N   0  0  0  0  0  0  0  0  0  0  0  0
   -3.3791   20.9729   -7.6004 C   0  0  0  0  0  0  0  0  0  0  0  0
   -3.4281   19.4764   -7.9882 C   0  0  0  0  0  0  0  0  0  0  0  0
   -5.7875   19.2321   -7.3813 C   0  0  0  0  0  0  0  0  0  0  0  0
   -5.8731   20.6796   -6.9087 C   0  0  0  0  0  0  0  0  0  0  0  0
   -4.8042   21.6028   -7.5403 C   0  0  0  0  0  0  0  0  0  0  0  0
   -5.2726   22.0175   -8.9503 C   0  0  0  0  0  0  0  0  0  0  0  0
   -4.2164   17.6120   -6.4254 C   0  0  0  0  0  0  0  0  0  0  0  0
   -5.1650   17.0259   -5.8901 O   0  0  0  0  0  0  0  0  0  0  0  0
   -2.0179   15.2113   -5.0421 N   0  0  0  0  0  0  0  0  0  0  0  0
   -2.8132   17.0762   -6.2171 C   0  0  0  0  0  0  0  0  0  0  0  0
   -2.4950   15.9533   -7.2177 C   0  0  0  0  0  0  0  0  0  0  0  0
   -1.8469   14.8390   -6.4162 C   0  0  0  0  0  0  0  0  0  0  0  0
   -2.6609   16.4190   -4.8708 C   0  0  0  0  0  0  0  0  0  0  0  0
   -2.9930   16.8976   -3.7933 O   0  0  0  0  0  0  0  0  0  0  0  0
   -1.5342   14.4050   -3.9404 C   0  0  0  0  0  0  0  0  0  0  0  0
   -0.0779   14.6789   -3.6398 C   0  0  0  0  0  0  0  0  0  0  0  0
    0.8047   13.6137   -3.4018 C   0  0  0  0  0  0  0  0  0  0  0  0
    2.1493   13.8519   -3.1132 C   0  0  0  0  0  0  0  0  0  0  0  0
    2.6235   15.1590   -3.0368 C   0  0  0  0  0  0  0  0  0  0  0  0
    1.7544   16.2272   -3.2536 C   0  0  0  0  0  0  0  0  0  0  0  0
    0.4109   15.9897   -3.5553 C   0  0  0  0  0  0  0  0  0  0  0  0
   -2.5357   21.2252   -6.4154 N   0  0  0  0  0  0  0  0  0  0  0  0
   -1.4745   20.3125   -6.0002 C   0  0  0  0  0  0  0  0  0  0  0  0
   -1.4483   23.3165   -6.2286 N   0  0  0  0  0  0  0  0  0  0  0  0
   -2.0495   25.1377   -4.7825 N   0  0  0  0  0  0  0  0  0  0  0  0
   -3.9025   24.6656   -3.3757 N   0  0  0  0  0  0  0  0  0  0  0  0
   -1.3097   24.5546   -5.7286 C   0  0  0  0  0  0  0  0  0  0  0  0
   -3.0168   24.3174   -4.3562 C   0  0  0  0  0  0  0  0  0  0  0  0
   -4.7667   23.6338   -3.1458 C   0  0  0  0  0  0  0  0  0  0  0  0
   -4.4178   22.6080   -3.9993 C   0  0  0  0  0  0  0  0  0  0  0  0
   -3.2981   23.0236   -4.7906 C   0  0  0  0  0  0  0  0  0  0  0  0
   -2.4558   22.4902   -5.8091 C   0  0  0  0  0  0  0  0  0  0  0  0
   -3.8855   25.5569   -2.9019 H   0  0  0  0  0  0  0  0  0  0  0  0
 27 30  1  0  0  0
  1  8  1  0  0  0
 10 14  1  0  0  0
 28 26  2  0  0  0
 29 27  1  0  0  0
 31 32  1  0  0  0
 32 29  2  0  0  0
 33 23  1  0  0  0
 33 25  2  0  0  0
  2 23  1  0  0  0
  2  3  1  0  0  0
  3  1  1  0  0  0
  4  1  1  0  0  0
  4  5  1  0  0  0
  5  6  1  0  0  0
  6  7  1  0  0  0
  6  2  1  0  0  0
 11  8  1  0  0  0
 11 12  1  0  0  0
 11 14  1  0  0  0
 12 13  1  0  0  0
 13 10  1  0  0  0
 16 10  1  0  0  0
 16 17  1  0  0  0
 18 19  2  0  0  0
 20 21  2  0  0  0
 22 17  2  0  0  0
 24 23  1  0  0  0
 28 25  1  0  0  0
 29 26  1  0  0  0
 30 31  2  0  0  0
 32 33  1  0  0  0
  8  9  2  0  0  0
 14 15  2  0  0  0
 17 18  1  0  0  0
 19 20  1  0  0  0
 21 22  1  0  0  0
 27 34  1  0  0  0
M  END
> <minimizedAffinity>
-8.17298

$$$$
CHEMBL1630793


 34 38  0  0  0  0  0  0  0  0999 V2000
   -0.6171   19.1393   -5.7055 N   0  0  0  0  0  0  0  0  0  0  0  0
   -0.4829   16.6921   -5.1534 C   0  0  0  0  0  0  0  0  0  0  0  0
   -0.4541   17.7876   -6.2448 C   0  0  0  0  0  0  0  0  0  0  0  0
    0.3957   19.5064   -4.7222 C   0  0  0  0  0  0  0  0  0  0  0  0
    0.3687   18.5479   -3.5363 C   0  0  0  0  0  0  0  0  0  0  0  0
    0.4297   17.0563   -3.9426 C   0  0  0  0  0  0  0  0  0  0  0  0
    1.8959   16.6782   -4.2369 C   0  0  0  0  0  0  0  0  0  0  0  0
   -1.6024   20.0623   -6.0282 C   0  0  0  0  0  0  0  0  0  0  0  0
   -1.5892   21.1997   -5.5422 O   0  0  0  0  0  0  0  0  0  0  0  0
   -4.7355   20.7329   -7.5264 N   0  0  0  0  0  0  0  0  0  0  0  0
   -2.6940   19.7014   -7.0169 C   0  0  0  0  0  0  0  0  0  0  0  0
   -2.5407   20.4945   -8.3249 C   0  0  0  0  0  0  0  0  0  0  0  0
   -3.9250   21.0084   -8.6767 C   0  0  0  0  0  0  0  0  0  0  0  0
   -4.0572   20.0928   -6.5107 C   0  0  0  0  0  0  0  0  0  0  0  0
   -4.5171   19.8347   -5.4051 O   0  0  0  0  0  0  0  0  0  0  0  0
   -6.1418   21.0715   -7.4530 C   0  0  0  0  0  0  0  0  0  0  0  0
   -6.9543   20.3282   -8.4890 C   0  0  0  0  0  0  0  0  0  0  0  0
   -7.9187   21.0086   -9.2489 C   0  0  0  0  0  0  0  0  0  0  0  0
   -8.6830   20.3332  -10.2016 C   0  0  0  0  0  0  0  0  0  0  0  0
   -8.5085   18.9647  -10.3909 C   0  0  0  0  0  0  0  0  0  0  0  0
   -7.5666   18.2728   -9.6310 C   0  0  0  0  0  0  0  0  0  0  0  0
   -6.7917   18.9501   -8.6859 C   0  0  0  0  0  0  0  0  0  0  0  0
   -1.8552   16.2804   -4.7978 N   0  0  0  0  0  0  0  0  0  0  0  0
   -2.8244   17.2043   -4.2155 C   0  0  0  0  0  0  0  0  0  0  0  0
   -3.5670   15.2319   -6.0474 N   0  0  0  0  0  0  0  0  0  0  0  0
   -3.8275   12.8797   -6.4577 N   0  0  0  0  0  0  0  0  0  0  0  0
   -2.1831   11.5389   -5.3929 N   0  0  0  0  0  0  0  0  0  0  0  0
   -4.1741   14.1626   -6.5859 C   0  0  0  0  0  0  0  0  0  0  0  0
   -2.7349   12.7517   -5.6961 C   0  0  0  0  0  0  0  0  0  0  0  0
   -1.0866   11.7155   -4.5987 C   0  0  0  0  0  0  0  0  0  0  0  0
   -0.9429   13.0718   -4.3927 C   0  0  0  0  0  0  0  0  0  0  0  0
   -1.9879   13.7601   -5.0905 C   0  0  0  0  0  0  0  0  0  0  0  0
   -2.4339   15.0989   -5.2909 C   0  0  0  0  0  0  0  0  0  0  0  0
   -2.5619   10.6598   -5.7137 H   0  0  0  0  0  0  0  0  0  0  0  0
 27 30  1  0  0  0
  1  8  1  0  0  0
 10 14  1  0  0  0
 28 26  2  0  0  0
 29 27  1  0  0  0
 31 32  1  0  0  0
 32 29  2  0  0  0
 33 23  1  0  0  0
 33 25  2  0  0  0
  2 23  1  0  0  0
  2  3  1  0  0  0
  3  1  1  0  0  0
  4  1  1  0  0  0
  4  5  1  0  0  0
  5  6  1  0  0  0
  6  7  1  0  0  0
  6  2  1  0  0  0
 11  8  1  0  0  0
 11 12  1  0  0  0
 11 14  1  0  0  0
 12 13  1  0  0  0
 13 10  1  0  0  0
 16 10  1  0  0  0
 16 17  1  0  0  0
 18 19  2  0  0  0
 20 21  2  0  0  0
 22 17  2  0  0  0
 24 23  1  0  0  0
 28 25  1  0  0  0
 29 26  1  0  0  0
 30 31  2  0  0  0
 32 33  1  0  0  0
  8  9  2  0  0  0
 14 15  2  0  0  0
 17 18  1  0  0  0
 19 20  1  0  0  0
 21 22  1  0  0  0
 27 34  1  0  0  0
M  END
> <minimizedAffinity>
-8.11915

$$$$
CHEMBL1630793


 34 38  0  0  0  0  0  0  0  0999 V2000
   -2.9593   15.2020   -4.7909 N   0  0  0  0  0  0  0  0  0  0  0  0
   -0.9919   16.7383   -4.5064 C   0  0  0  0  0  0  0  0  0  0  0  0
   -2.4381   16.3788   -4.0923 C   0  0  0  0  0  0  0  0  0  0  0  0
   -2.1596   13.9984   -4.5930 C   0  0  0  0  0  0  0  0  0  0  0  0
   -0.7321   14.2121   -5.0853 C   0  0  0  0  0  0  0  0  0  0  0  0
   -0.0634   15.4856   -4.5154 C   0  0  0  0  0  0  0  0  0  0  0  0
    0.4536   15.1848   -3.0936 C   0  0  0  0  0  0  0  0  0  0  0  0
   -4.0927   15.1290   -5.5889 C   0  0  0  0  0  0  0  0  0  0  0  0
   -4.4586   14.0512   -6.0733 O   0  0  0  0  0  0  0  0  0  0  0  0
   -6.4629   16.8848   -7.5409 N   0  0  0  0  0  0  0  0  0  0  0  0
   -4.9263   16.3688   -5.8485 C   0  0  0  0  0  0  0  0  0  0  0  0
   -6.3518   16.2031   -5.2970 C   0  0  0  0  0  0  0  0  0  0  0  0
   -7.2895   16.6945   -6.3848 C   0  0  0  0  0  0  0  0  0  0  0  0
   -5.1305   16.6057   -7.3216 C   0  0  0  0  0  0  0  0  0  0  0  0
   -4.2553   16.6130   -8.1786 O   0  0  0  0  0  0  0  0  0  0  0  0
   -6.9784   17.3533   -8.8107 C   0  0  0  0  0  0  0  0  0  0  0  0
   -7.1584   18.8544   -8.8255 C   0  0  0  0  0  0  0  0  0  0  0  0
   -8.4220   19.4099   -9.0807 C   0  0  0  0  0  0  0  0  0  0  0  0
   -8.6009   20.7938   -9.1074 C   0  0  0  0  0  0  0  0  0  0  0  0
   -7.5143   21.6399   -8.9014 C   0  0  0  0  0  0  0  0  0  0  0  0
   -6.2502   21.1022   -8.6641 C   0  0  0  0  0  0  0  0  0  0  0  0
   -6.0722   19.7169   -8.6243 C   0  0  0  0  0  0  0  0  0  0  0  0
   -0.9396   17.5616   -5.7305 N   0  0  0  0  0  0  0  0  0  0  0  0
   -1.3990   17.0695   -7.0261 C   0  0  0  0  0  0  0  0  0  0  0  0
    0.5014   19.4222   -5.5007 N   0  0  0  0  0  0  0  0  0  0  0  0
   -0.1068   21.7443   -5.5840 N   0  0  0  0  0  0  0  0  0  0  0  0
   -2.4364   22.1100   -5.8566 N   0  0  0  0  0  0  0  0  0  0  0  0
    0.7643   20.7384   -5.4757 C   0  0  0  0  0  0  0  0  0  0  0  0
   -1.3535   21.2848   -5.7408 C   0  0  0  0  0  0  0  0  0  0  0  0
   -3.5721   21.3653   -5.9981 C   0  0  0  0  0  0  0  0  0  0  0  0
   -3.1989   20.0377   -5.9686 C   0  0  0  0  0  0  0  0  0  0  0  0
   -1.7774   19.9590   -5.8076 C   0  0  0  0  0  0  0  0  0  0  0  0
   -0.7720   18.9560   -5.6883 C   0  0  0  0  0  0  0  0  0  0  0  0
   -2.3740   23.1171   -5.8252 H   0  0  0  0  0  0  0  0  0  0  0  0
 27 30  1  0  0  0
  1  8  1  0  0  0
 10 14  1  0  0  0
 28 26  2  0  0  0
 29 27  1  0  0  0
 31 32  1  0  0  0
 32 29  2  0  0  0
 33 23  1  0  0  0
 33 25  2  0  0  0
  2 23  1  0  0  0
  2  3  1  0  0  0
  3  1  1  0  0  0
  4  1  1  0  0  0
  4  5  1  0  0  0
  5  6  1  0  0  0
  6  7  1  0  0  0
  6  2  1  0  0  0
 11  8  1  0  0  0
 11 12  1  0  0  0
 11 14  1  0  0  0
 12 13  1  0  0  0
 13 10  1  0  0  0
 16 10  1  0  0  0
 16 17  1  0  0  0
 18 19  2  0  0  0
 20 21  2  0  0  0
 22 17  2  0  0  0
 24 23  1  0  0  0
 28 25  1  0  0  0
 29 26  1  0  0  0
 30 31  2  0  0  0
 32 33  1  0  0  0
  8  9  2  0  0  0
 14 15  2  0  0  0
 17 18  1  0  0  0
 19 20  1  0  0  0
 21 22  1  0  0  0
 27 34  1  0  0  0
M  END
> <minimizedAffinity>
-8.10571

$$$$
CHEMBL1630793


 34 38  0  0  0  0  0  0  0  0999 V2000
   -3.3531   19.5606   -6.7535 N   0  0  0  0  0  0  0  0  0  0  0  0
   -5.7000   20.2048   -7.3772 C   0  0  0  0  0  0  0  0  0  0  0  0
   -4.7055   19.8220   -6.2562 C   0  0  0  0  0  0  0  0  0  0  0  0
   -2.7609   20.6865   -7.4669 C   0  0  0  0  0  0  0  0  0  0  0  0
   -3.6123   21.0691   -8.6730 C   0  0  0  0  0  0  0  0  0  0  0  0
   -5.1068   21.2832   -8.3347 C   0  0  0  0  0  0  0  0  0  0  0  0
   -5.2868   22.6943   -7.7384 C   0  0  0  0  0  0  0  0  0  0  0  0
   -2.6156   18.3928   -6.6158 C   0  0  0  0  0  0  0  0  0  0  0  0
   -1.4528   18.3246   -7.0319 O   0  0  0  0  0  0  0  0  0  0  0  0
   -2.5079   14.9586   -5.7759 N   0  0  0  0  0  0  0  0  0  0  0  0
   -3.2138   17.1888   -5.9144 C   0  0  0  0  0  0  0  0  0  0  0  0
   -2.5504   16.9584   -4.5468 C   0  0  0  0  0  0  0  0  0  0  0  0
   -2.2553   15.4719   -4.4611 C   0  0  0  0  0  0  0  0  0  0  0  0
   -2.9463   15.9133   -6.6689 C   0  0  0  0  0  0  0  0  0  0  0  0
   -3.1421   15.7281   -7.8639 O   0  0  0  0  0  0  0  0  0  0  0  0
   -2.3436   13.5619   -6.1224 C   0  0  0  0  0  0  0  0  0  0  0  0
   -3.6298   12.7852   -5.9532 C   0  0  0  0  0  0  0  0  0  0  0  0
   -4.8659   13.4473   -6.0155 C   0  0  0  0  0  0  0  0  0  0  0  0
   -6.0607   12.7448   -5.8511 C   0  0  0  0  0  0  0  0  0  0  0  0
   -6.0338   11.3754   -5.6003 C   0  0  0  0  0  0  0  0  0  0  0  0
   -4.8127   10.7079   -5.5184 C   0  0  0  0  0  0  0  0  0  0  0  0
   -3.6163   11.4076   -5.6955 C   0  0  0  0  0  0  0  0  0  0  0  0
   -6.2794   19.0253   -8.0497 N   0  0  0  0  0  0  0  0  0  0  0  0
   -6.1652   17.6765   -7.5025 C   0  0  0  0  0  0  0  0  0  0  0  0
   -7.2014   18.2263  -10.0751 N   0  0  0  0  0  0  0  0  0  0  0  0
   -9.1112   19.0995  -11.2412 N   0  0  0  0  0  0  0  0  0  0  0  0
  -10.0632   21.0145  -10.2107 N   0  0  0  0  0  0  0  0  0  0  0  0
   -8.1057   18.2386  -11.0672 C   0  0  0  0  0  0  0  0  0  0  0  0
   -9.1410   20.0074  -10.2588 C   0  0  0  0  0  0  0  0  0  0  0  0
   -9.8473   21.7865   -9.1055 C   0  0  0  0  0  0  0  0  0  0  0  0
   -8.7614   21.2567   -8.4402 C   0  0  0  0  0  0  0  0  0  0  0  0
   -8.2912   20.1101   -9.1593 C   0  0  0  0  0  0  0  0  0  0  0  0
   -7.2516   19.1406   -9.0575 C   0  0  0  0  0  0  0  0  0  0  0  0
  -10.7776   21.1482  -10.9114 H   0  0  0  0  0  0  0  0  0  0  0  0
 27 30  1  0  0  0
  1  8  1  0  0  0
 10 14  1  0  0  0
 28 26  2  0  0  0
 29 27  1  0  0  0
 31 32  1  0  0  0
 32 29  2  0  0  0
 33 23  1  0  0  0
 33 25  2  0  0  0
  2 23  1  0  0  0
  2  3  1  0  0  0
  3  1  1  0  0  0
  4  1  1  0  0  0
  4  5  1  0  0  0
  5  6  1  0  0  0
  6  7  1  0  0  0
  6  2  1  0  0  0
 11  8  1  0  0  0
 11 12  1  0  0  0
 11 14  1  0  0  0
 12 13  1  0  0  0
 13 10  1  0  0  0
 16 10  1  0  0  0
 16 17  1  0  0  0
 18 19  2  0  0  0
 20 21  2  0  0  0
 22 17  2  0  0  0
 24 23  1  0  0  0
 28 25  1  0  0  0
 29 26  1  0  0  0
 30 31  2  0  0  0
 32 33  1  0  0  0
  8  9  2  0  0  0
 14 15  2  0  0  0
 17 18  1  0  0  0
 19 20  1  0  0  0
 21 22  1  0  0  0
 27 34  1  0  0  0
M  END
> <minimizedAffinity>
-8.08272

$$$$
CHEMBL1630793


 34 38  0  0  0  0  0  0  0  0999 V2000
   -2.9572   17.5263   -6.5391 N   0  0  0  0  0  0  0  0  0  0  0  0
   -3.0366   15.5606   -4.9766 C   0  0  0  0  0  0  0  0  0  0  0  0
   -3.4476   17.0258   -5.2532 C   0  0  0  0  0  0  0  0  0  0  0  0
   -3.4087   16.7453   -7.6851 C   0  0  0  0  0  0  0  0  0  0  0  0
   -2.9471   15.2965   -7.5663 C   0  0  0  0  0  0  0  0  0  0  0  0
   -3.2995   14.6424   -6.2092 C   0  0  0  0  0  0  0  0  0  0  0  0
   -4.7733   14.1883   -6.2413 C   0  0  0  0  0  0  0  0  0  0  0  0
   -2.1387   18.6256   -6.7587 C   0  0  0  0  0  0  0  0  0  0  0  0
   -1.8469   18.9792   -7.9076 O   0  0  0  0  0  0  0  0  0  0  0  0
    0.2490   20.8368   -5.3730 N   0  0  0  0  0  0  0  0  0  0  0  0
   -1.6184   19.4376   -5.5886 C   0  0  0  0  0  0  0  0  0  0  0  0
   -2.0772   20.9019   -5.6831 C   0  0  0  0  0  0  0  0  0  0  0  0
   -0.8550   21.7517   -5.3862 C   0  0  0  0  0  0  0  0  0  0  0  0
   -0.1151   19.5254   -5.5946 C   0  0  0  0  0  0  0  0  0  0  0  0
    0.6614   18.5855   -5.7131 O   0  0  0  0  0  0  0  0  0  0  0  0
    1.6139   21.2513   -5.1221 C   0  0  0  0  0  0  0  0  0  0  0  0
    1.8056   21.7245   -3.6989 C   0  0  0  0  0  0  0  0  0  0  0  0
    1.2857   20.9759   -2.6315 C   0  0  0  0  0  0  0  0  0  0  0  0
    1.4464   21.4058   -1.3134 C   0  0  0  0  0  0  0  0  0  0  0  0
    2.1094   22.6011   -1.0473 C   0  0  0  0  0  0  0  0  0  0  0  0
    2.6157   23.3637   -2.0987 C   0  0  0  0  0  0  0  0  0  0  0  0
    2.4668   22.9280   -3.4179 C   0  0  0  0  0  0  0  0  0  0  0  0
   -1.6846   15.4502   -4.3943 N   0  0  0  0  0  0  0  0  0  0  0  0
   -1.0608   16.5400   -3.6495 C   0  0  0  0  0  0  0  0  0  0  0  0
   -1.7913   13.0888   -4.4521 N   0  0  0  0  0  0  0  0  0  0  0  0
   -0.0157   11.5462   -3.9652 N   0  0  0  0  0  0  0  0  0  0  0  0
    2.0031   12.5986   -3.2927 N   0  0  0  0  0  0  0  0  0  0  0  0
   -1.2586   11.8620   -4.3367 C   0  0  0  0  0  0  0  0  0  0  0  0
    0.7028   12.6456   -3.7102 C   0  0  0  0  0  0  0  0  0  0  0  0
    2.4749   13.8662   -3.1064 C   0  0  0  0  0  0  0  0  0  0  0  0
    1.4482   14.7355   -3.4108 C   0  0  0  0  0  0  0  0  0  0  0  0
    0.2991   13.9759   -3.8052 C   0  0  0  0  0  0  0  0  0  0  0  0
   -1.0450   14.2118   -4.2163 C   0  0  0  0  0  0  0  0  0  0  0  0
    2.5077   11.7374   -3.1414 H   0  0  0  0  0  0  0  0  0  0  0  0
 27 30  1  0  0  0
  1  8  1  0  0  0
 10 14  1  0  0  0
 28 26  2  0  0  0
 29 27  1  0  0  0
 31 32  1  0  0  0
 32 29  2  0  0  0
 33 23  1  0  0  0
 33 25  2  0  0  0
  2 23  1  0  0  0
  2  3  1  0  0  0
  3  1  1  0  0  0
  4  1  1  0  0  0
  4  5  1  0  0  0
  5  6  1  0  0  0
  6  7  1  0  0  0
  6  2  1  0  0  0
 11  8  1  0  0  0
 11 12  1  0  0  0
 11 14  1  0  0  0
 12 13  1  0  0  0
 13 10  1  0  0  0
 16 10  1  0  0  0
 16 17  1  0  0  0
 18 19  2  0  0  0
 20 21  2  0  0  0
 22 17  2  0  0  0
 24 23  1  0  0  0
 28 25  1  0  0  0
 29 26  1  0  0  0
 30 31  2  0  0  0
 32 33  1  0  0  0
  8  9  2  0  0  0
 14 15  2  0  0  0
 17 18  1  0  0  0
 19 20  1  0  0  0
 21 22  1  0  0  0
 27 34  1  0  0  0
M  END
> <minimizedAffinity>
-7.95508

$$$$
CHEMBL1630793


 34 38  0  0  0  0  0  0  0  0999 V2000
   -3.5541   19.7330   -6.4360 N   0  0  0  0  0  0  0  0  0  0  0  0
   -5.7754   19.9063   -7.5969 C   0  0  0  0  0  0  0  0  0  0  0  0
   -5.0079   19.6567   -6.2774 C   0  0  0  0  0  0  0  0  0  0  0  0
   -3.0852   21.0137   -6.9530 C   0  0  0  0  0  0  0  0  0  0  0  0
   -3.6975   21.3005   -8.3200 C   0  0  0  0  0  0  0  0  0  0  0  0
   -5.2380   21.1606   -8.3514 C   0  0  0  0  0  0  0  0  0  0  0  0
   -5.8683   22.4473   -7.7800 C   0  0  0  0  0  0  0  0  0  0  0  0
   -2.6225   18.7436   -6.1533 C   0  0  0  0  0  0  0  0  0  0  0  0
   -1.4108   18.9606   -6.2744 O   0  0  0  0  0  0  0  0  0  0  0  0
   -1.8711   15.5036   -4.9497 N   0  0  0  0  0  0  0  0  0  0  0  0
   -3.0766   17.3866   -5.6515 C   0  0  0  0  0  0  0  0  0  0  0  0
   -3.0777   17.3364   -4.1149 C   0  0  0  0  0  0  0  0  0  0  0  0
   -2.4177   16.0244   -3.7308 C   0  0  0  0  0  0  0  0  0  0  0  0
   -2.1196   16.2948   -6.0513 C   0  0  0  0  0  0  0  0  0  0  0  0
   -1.6802   16.0982   -7.1778 O   0  0  0  0  0  0  0  0  0  0  0  0
   -1.1501   14.2493   -5.0183 C   0  0  0  0  0  0  0  0  0  0  0  0
    0.1412   14.2990   -4.2333 C   0  0  0  0  0  0  0  0  0  0  0  0
    0.7495   15.5331   -3.9551 C   0  0  0  0  0  0  0  0  0  0  0  0
    1.9467   15.5934   -3.2403 C   0  0  0  0  0  0  0  0  0  0  0  0
    2.5624   14.4195   -2.8139 C   0  0  0  0  0  0  0  0  0  0  0  0
    1.9787   13.1859   -3.0983 C   0  0  0  0  0  0  0  0  0  0  0  0
    0.7735   13.1247   -3.8026 C   0  0  0  0  0  0  0  0  0  0  0  0
   -5.8984   18.6882   -8.4216 N   0  0  0  0  0  0  0  0  0  0  0  0
   -4.7629   18.1023   -9.1281 C   0  0  0  0  0  0  0  0  0  0  0  0
   -7.9405   17.8990   -9.3149 N   0  0  0  0  0  0  0  0  0  0  0  0
   -9.3478   16.1759   -8.4095 N   0  0  0  0  0  0  0  0  0  0  0  0
   -8.5574   15.2800   -6.3581 N   0  0  0  0  0  0  0  0  0  0  0  0
   -9.0143   17.0934   -9.3202 C   0  0  0  0  0  0  0  0  0  0  0  0
   -8.4418   16.1243   -7.4263 C   0  0  0  0  0  0  0  0  0  0  0  0
   -7.4956   15.4508   -5.5169 C   0  0  0  0  0  0  0  0  0  0  0  0
   -6.6907   16.4278   -6.0647 C   0  0  0  0  0  0  0  0  0  0  0  0
   -7.2750   16.8745   -7.2943 C   0  0  0  0  0  0  0  0  0  0  0  0
   -7.0020   17.8244   -8.3211 C   0  0  0  0  0  0  0  0  0  0  0  0
   -9.3323   14.6453   -6.2323 H   0  0  0  0  0  0  0  0  0  0  0  0
 27 30  1  0  0  0
  1  8  1  0  0  0
 10 14  1  0  0  0
 28 26  2  0  0  0
 29 27  1  0  0  0
 31 32  1  0  0  0
 32 29  2  0  0  0
 33 23  1  0  0  0
 33 25  2  0  0  0
  2 23  1  0  0  0
  2  3  1  0  0  0
  3  1  1  0  0  0
  4  1  1  0  0  0
  4  5  1  0  0  0
  5  6  1  0  0  0
  6  7  1  0  0  0
  6  2  1  0  0  0
 11  8  1  0  0  0
 11 12  1  0  0  0
 11 14  1  0  0  0
 12 13  1  0  0  0
 13 10  1  0  0  0
 16 10  1  0  0  0
 16 17  1  0  0  0
 18 19  2  0  0  0
 20 21  2  0  0  0
 22 17  2  0  0  0
 24 23  1  0  0  0
 28 25  1  0  0  0
 29 26  1  0  0  0
 30 31  2  0  0  0
 32 33  1  0  0  0
  8  9  2  0  0  0
 14 15  2  0  0  0
 17 18  1  0  0  0
 19 20  1  0  0  0
 21 22  1  0  0  0
 27 34  1  0  0  0
M  END
> <minimizedAffinity>
-7.93712

$$$$
CHEMBL1630793


 34 38  0  0  0  0  0  0  0  0999 V2000
   -4.8654   18.7458   -8.2451 N   0  0  0  0  0  0  0  0  0  0  0  0
   -4.4186   21.1597   -7.7108 C   0  0  0  0  0  0  0  0  0  0  0  0
   -3.9391   19.8676   -8.4129 C   0  0  0  0  0  0  0  0  0  0  0  0
   -6.2100   19.0138   -8.7425 C   0  0  0  0  0  0  0  0  0  0  0  0
   -6.8237   20.2093   -8.0213 C   0  0  0  0  0  0  0  0  0  0  0  0
   -5.9173   21.4631   -8.0163 C   0  0  0  0  0  0  0  0  0  0  0  0
   -6.0579   22.1866   -9.3713 C   0  0  0  0  0  0  0  0  0  0  0  0
   -4.5948   17.5066   -7.6813 C   0  0  0  0  0  0  0  0  0  0  0  0
   -5.4564   16.6195   -7.6569 O   0  0  0  0  0  0  0  0  0  0  0  0
   -2.4696   15.5495   -5.6406 N   0  0  0  0  0  0  0  0  0  0  0  0
   -3.2190   17.2065   -7.1185 C   0  0  0  0  0  0  0  0  0  0  0  0
   -2.5216   16.0975   -7.9229 C   0  0  0  0  0  0  0  0  0  0  0  0
   -1.9308   15.1393   -6.9045 C   0  0  0  0  0  0  0  0  0  0  0  0
   -3.2968   16.6498   -5.7214 C   0  0  0  0  0  0  0  0  0  0  0  0
   -3.9358   17.1249   -4.7907 O   0  0  0  0  0  0  0  0  0  0  0  0
   -2.1504   14.8849   -4.3940 C   0  0  0  0  0  0  0  0  0  0  0  0
   -0.7135   15.1170   -3.9846 C   0  0  0  0  0  0  0  0  0  0  0  0
    0.1088   14.0291   -3.6519 C   0  0  0  0  0  0  0  0  0  0  0  0
    1.4340   14.2291   -3.2625 C   0  0  0  0  0  0  0  0  0  0  0  0
    1.9474   15.5209   -3.1794 C   0  0  0  0  0  0  0  0  0  0  0  0
    1.1371   16.6119   -3.4900 C   0  0  0  0  0  0  0  0  0  0  0  0
   -0.1860   16.4123   -3.8923 C   0  0  0  0  0  0  0  0  0  0  0  0
   -4.0538   21.1980   -6.2809 N   0  0  0  0  0  0  0  0  0  0  0  0
   -2.9187   20.4547   -5.7416 C   0  0  0  0  0  0  0  0  0  0  0  0
   -5.7209   21.9276   -4.7711 N   0  0  0  0  0  0  0  0  0  0  0  0
   -5.7691   23.9997   -3.5573 N   0  0  0  0  0  0  0  0  0  0  0  0
   -3.9421   25.4339   -4.0475 N   0  0  0  0  0  0  0  0  0  0  0  0
   -6.2482   22.8012   -3.8989 C   0  0  0  0  0  0  0  0  0  0  0  0
   -4.6279   24.2625   -4.2044 C   0  0  0  0  0  0  0  0  0  0  0  0
   -2.8254   25.4245   -4.8331 C   0  0  0  0  0  0  0  0  0  0  0  0
   -2.8058   24.2198   -5.5045 C   0  0  0  0  0  0  0  0  0  0  0  0
   -3.9518   23.4531   -5.1151 C   0  0  0  0  0  0  0  0  0  0  0  0
   -4.5391   22.1887   -5.4108 C   0  0  0  0  0  0  0  0  0  0  0  0
   -4.2493   26.1814   -3.4423 H   0  0  0  0  0  0  0  0  0  0  0  0
 27 30  1  0  0  0
  1  8  1  0  0  0
 10 14  1  0  0  0
 28 26  2  0  0  0
 29 27  1  0  0  0
 31 32  1  0  0  0
 32 29  2  0  0  0
 33 23  1  0  0  0
 33 25  2  0  0  0
  2 23  1  0  0  0
  2  3  1  0  0  0
  3  1  1  0  0  0
  4  1  1  0  0  0
  4  5  1  0  0  0
  5  6  1  0  0  0
  6  7  1  0  0  0
  6  2  1  0  0  0
 11  8  1  0  0  0
 11 12  1  0  0  0
 11 14  1  0  0  0
 12 13  1  0  0  0
 13 10  1  0  0  0
 16 10  1  0  0  0
 16 17  1  0  0  0
 18 19  2  0  0  0
 20 21  2  0  0  0
 22 17  2  0  0  0
 24 23  1  0  0  0
 28 25  1  0  0  0
 29 26  1  0  0  0
 30 31  2  0  0  0
 32 33  1  0  0  0
  8  9  2  0  0  0
 14 15  2  0  0  0
 17 18  1  0  0  0
 19 20  1  0  0  0
 21 22  1  0  0  0
 27 34  1  0  0  0
M  END
> <minimizedAffinity>
-7.86379

$$$$
CHEMBL1630796


 26 29  0  0  0  0  0  0  0  0999 V2000
   -3.8939   16.2262   -6.8879 N   0  0  0  0  0  0  0  0  0  0  0  0
   -1.8391   17.3837   -5.9863 C   0  0  0  0  0  0  0  0  0  0  0  0
   -2.4369   16.2758   -6.8845 C   0  0  0  0  0  0  0  0  0  0  0  0
   -4.5132   17.5052   -7.2291 C   0  0  0  0  0  0  0  0  0  0  0  0
   -4.1181   18.6041   -6.2454 C   0  0  0  0  0  0  0  0  0  0  0  0
   -2.5959   18.7353   -6.0375 C   0  0  0  0  0  0  0  0  0  0  0  0
   -2.0186   19.6123   -7.1639 C   0  0  0  0  0  0  0  0  0  0  0  0
   -4.7325   15.1696   -6.5135 C   0  0  0  0  0  0  0  0  0  0  0  0
   -5.9553   15.3540   -6.4631 O   0  0  0  0  0  0  0  0  0  0  0  0
   -4.2415   13.8205   -6.1635 C   0  0  0  0  0  0  0  0  0  0  0  0
   -2.9503   13.3299   -6.0952 C   0  0  0  0  0  0  0  0  0  0  0  0
   -4.5525   11.5247   -5.6530 C   0  0  0  0  0  0  0  0  0  0  0  0
   -5.1629   12.7220   -5.9439 C   0  0  0  0  0  0  0  0  0  0  0  0
   -2.8573   11.6783   -5.6348 S   0  0  0  0  0  0  0  0  0  0  0  0
   -1.5374   16.9051   -4.6154 N   0  0  0  0  0  0  0  0  0  0  0  0
   -2.6596   16.5835   -3.7511 C   0  0  0  0  0  0  0  0  0  0  0  0
    0.1847   18.3011   -3.8410 N   0  0  0  0  0  0  0  0  0  0  0  0
    2.3145   17.5695   -2.9781 N   0  0  0  0  0  0  0  0  0  0  0  0
    2.5290   15.1961   -2.8893 N   0  0  0  0  0  0  0  0  0  0  0  0
    1.4130   18.4954   -3.3258 C   0  0  0  0  0  0  0  0  0  0  0  0
    1.8355   16.3364   -3.1832 C   0  0  0  0  0  0  0  0  0  0  0  0
    1.7622   14.1000   -3.1780 C   0  0  0  0  0  0  0  0  0  0  0  0
    0.5585   14.5561   -3.6742 C   0  0  0  0  0  0  0  0  0  0  0  0
    0.5946   15.9850   -3.7008 C   0  0  0  0  0  0  0  0  0  0  0  0
   -0.2763   17.0456   -4.0593 C   0  0  0  0  0  0  0  0  0  0  0  0
    3.4600   15.1953   -2.4989 H   0  0  0  0  0  0  0  0  0  0  0  0
 19 22  1  0  0  0
  1  8  1  0  0  0
 20 18  2  0  0  0
 21 19  1  0  0  0
 23 24  1  0  0  0
 24 21  2  0  0  0
 25 15  1  0  0  0
 25 17  2  0  0  0
  2 15  1  0  0  0
  2  3  1  0  0  0
  3  1  1  0  0  0
  4  1  1  0  0  0
  4  5  1  0  0  0
  5  6  1  0  0  0
  6  7  1  0  0  0
  6  2  1  0  0  0
  8 10  1  0  0  0
 11 14  1  0  0  0
 12 14  1  0  0  0
 13 10  1  0  0  0
 16 15  1  0  0  0
 20 17  1  0  0  0
 21 18  1  0  0  0
 22 23  2  0  0  0
 24 25  1  0  0  0
  8  9  2  0  0  0
 10 11  2  0  0  0
 12 13  2  0  0  0
 19 26  1  0  0  0
M  END
> <minimizedAffinity>
-9.30397

$$$$
CHEMBL1630796


 26 29  0  0  0  0  0  0  0  0999 V2000
   -4.0813   18.2761   -6.1989 N   0  0  0  0  0  0  0  0  0  0  0  0
   -4.0507   15.8074   -5.6702 C   0  0  0  0  0  0  0  0  0  0  0  0
   -3.8177   17.2585   -5.1889 C   0  0  0  0  0  0  0  0  0  0  0  0
   -5.4164   18.1745   -6.7846 C   0  0  0  0  0  0  0  0  0  0  0  0
   -5.6347   16.8234   -7.4616 C   0  0  0  0  0  0  0  0  0  0  0  0
   -5.3040   15.6158   -6.5617 C   0  0  0  0  0  0  0  0  0  0  0  0
   -6.5281   15.3093   -5.6791 C   0  0  0  0  0  0  0  0  0  0  0  0
   -3.2037   19.2307   -6.7265 C   0  0  0  0  0  0  0  0  0  0  0  0
   -3.5727   19.9361   -7.6741 O   0  0  0  0  0  0  0  0  0  0  0  0
   -1.8346   19.4529   -6.2166 C   0  0  0  0  0  0  0  0  0  0  0  0
   -1.2076   20.6201   -5.8203 C   0  0  0  0  0  0  0  0  0  0  0  0
    0.3719   18.7456   -5.7077 C   0  0  0  0  0  0  0  0  0  0  0  0
   -0.8641   18.3755   -6.1832 C   0  0  0  0  0  0  0  0  0  0  0  0
    0.4091   20.3947   -5.2875 S   0  0  0  0  0  0  0  0  0  0  0  0
   -2.8186   15.1804   -6.2072 N   0  0  0  0  0  0  0  0  0  0  0  0
   -2.5058   15.3998   -7.6085 C   0  0  0  0  0  0  0  0  0  0  0  0
   -2.5676   12.9032   -5.6917 N   0  0  0  0  0  0  0  0  0  0  0  0
   -0.9647   11.9737   -4.1482 N   0  0  0  0  0  0  0  0  0  0  0  0
    0.4780   13.6124   -3.1890 N   0  0  0  0  0  0  0  0  0  0  0  0
   -1.9721   11.8964   -5.0257 C   0  0  0  0  0  0  0  0  0  0  0  0
   -0.5562   13.2400   -4.0009 C   0  0  0  0  0  0  0  0  0  0  0  0
    0.6749   14.9636   -3.2796 C   0  0  0  0  0  0  0  0  0  0  0  0
   -0.2615   15.4599   -4.1628 C   0  0  0  0  0  0  0  0  0  0  0  0
   -1.0692   14.3730   -4.6209 C   0  0  0  0  0  0  0  0  0  0  0  0
   -2.1528   14.1812   -5.5158 C   0  0  0  0  0  0  0  0  0  0  0  0
    1.0116   12.9610   -2.6322 H   0  0  0  0  0  0  0  0  0  0  0  0
 19 22  1  0  0  0
  1  8  1  0  0  0
 20 18  2  0  0  0
 21 19  1  0  0  0
 23 24  1  0  0  0
 24 21  2  0  0  0
 25 15  1  0  0  0
 25 17  2  0  0  0
  2 15  1  0  0  0
  2  3  1  0  0  0
  3  1  1  0  0  0
  4  1  1  0  0  0
  4  5  1  0  0  0
  5  6  1  0  0  0
  6  7  1  0  0  0
  6  2  1  0  0  0
  8 10  1  0  0  0
 11 14  1  0  0  0
 12 14  1  0  0  0
 13 10  1  0  0  0
 16 15  1  0  0  0
 20 17  1  0  0  0
 21 18  1  0  0  0
 22 23  2  0  0  0
 24 25  1  0  0  0
  8  9  2  0  0  0
 10 11  2  0  0  0
 12 13  2  0  0  0
 19 26  1  0  0  0
M  END
> <minimizedAffinity>
-8.96658

$$$$
CHEMBL1630796


 26 29  0  0  0  0  0  0  0  0999 V2000
   -1.9255   17.9714   -5.2143 N   0  0  0  0  0  0  0  0  0  0  0  0
   -4.2578   17.2696   -5.8797 C   0  0  0  0  0  0  0  0  0  0  0  0
   -3.1922   17.4051   -4.7671 C   0  0  0  0  0  0  0  0  0  0  0  0
   -2.0763   19.2574   -5.8919 C   0  0  0  0  0  0  0  0  0  0  0  0
   -2.9623   19.1427   -7.1302 C   0  0  0  0  0  0  0  0  0  0  0  0
   -4.3219   18.4667   -6.8620 C   0  0  0  0  0  0  0  0  0  0  0  0
   -5.3021   19.5268   -6.3266 C   0  0  0  0  0  0  0  0  0  0  0  0
   -0.6484   17.3997   -5.1672 C   0  0  0  0  0  0  0  0  0  0  0  0
    0.2978   17.9828   -5.7117 O   0  0  0  0  0  0  0  0  0  0  0  0
   -0.3513   16.1160   -4.4982 C   0  0  0  0  0  0  0  0  0  0  0  0
    0.6480   15.7869   -3.6007 C   0  0  0  0  0  0  0  0  0  0  0  0
   -0.6721   13.7919   -4.1471 C   0  0  0  0  0  0  0  0  0  0  0  0
   -1.0821   14.9094   -4.8354 C   0  0  0  0  0  0  0  0  0  0  0  0
    0.6014   14.1523   -3.0767 S   0  0  0  0  0  0  0  0  0  0  0  0
   -4.2283   15.9410   -6.5382 N   0  0  0  0  0  0  0  0  0  0  0  0
   -3.3959   15.7920   -7.7191 C   0  0  0  0  0  0  0  0  0  0  0  0
   -6.4704   15.3468   -6.1721 N   0  0  0  0  0  0  0  0  0  0  0  0
   -7.2733   13.1425   -5.6132 N   0  0  0  0  0  0  0  0  0  0  0  0
   -5.5431   11.5034   -5.5309 N   0  0  0  0  0  0  0  0  0  0  0  0
   -7.4251   14.4468   -5.8713 C   0  0  0  0  0  0  0  0  0  0  0  0
   -5.9877   12.7828   -5.7132 C   0  0  0  0  0  0  0  0  0  0  0  0
   -4.1908   11.4496   -5.7336 C   0  0  0  0  0  0  0  0  0  0  0  0
   -3.7676   12.7256   -6.0431 C   0  0  0  0  0  0  0  0  0  0  0  0
   -4.9020   13.5951   -6.0175 C   0  0  0  0  0  0  0  0  0  0  0  0
   -5.1717   14.9680   -6.2507 C   0  0  0  0  0  0  0  0  0  0  0  0
   -6.1500   10.7301   -5.3010 H   0  0  0  0  0  0  0  0  0  0  0  0
 19 22  1  0  0  0
  1  8  1  0  0  0
 20 18  2  0  0  0
 21 19  1  0  0  0
 23 24  1  0  0  0
 24 21  2  0  0  0
 25 15  1  0  0  0
 25 17  2  0  0  0
  2 15  1  0  0  0
  2  3  1  0  0  0
  3  1  1  0  0  0
  4  1  1  0  0  0
  4  5  1  0  0  0
  5  6  1  0  0  0
  6  7  1  0  0  0
  6  2  1  0  0  0
  8 10  1  0  0  0
 11 14  1  0  0  0
 12 14  1  0  0  0
 13 10  1  0  0  0
 16 15  1  0  0  0
 20 17  1  0  0  0
 21 18  1  0  0  0
 22 23  2  0  0  0
 24 25  1  0  0  0
  8  9  2  0  0  0
 10 11  2  0  0  0
 12 13  2  0  0  0
 19 26  1  0  0  0
M  END
> <minimizedAffinity>
-8.88285

$$$$
CHEMBL1630796


 26 29  0  0  0  0  0  0  0  0999 V2000
   -1.5033   17.8373   -5.0077 N   0  0  0  0  0  0  0  0  0  0  0  0
   -3.5766   16.5465   -5.6481 C   0  0  0  0  0  0  0  0  0  0  0  0
   -2.5859   16.9792   -4.5422 C   0  0  0  0  0  0  0  0  0  0  0  0
   -1.9738   19.0237   -5.7198 C   0  0  0  0  0  0  0  0  0  0  0  0
   -2.7955   18.6535   -6.9524 C   0  0  0  0  0  0  0  0  0  0  0  0
   -3.9392   17.6608   -6.6626 C   0  0  0  0  0  0  0  0  0  0  0  0
   -5.1597   18.4501   -6.1540 C   0  0  0  0  0  0  0  0  0  0  0  0
   -0.1229   17.6116   -4.9481 C   0  0  0  0  0  0  0  0  0  0  0  0
    0.6460   18.4017   -5.5106 O   0  0  0  0  0  0  0  0  0  0  0  0
    0.4884   16.4645   -4.2451 C   0  0  0  0  0  0  0  0  0  0  0  0
    0.0611   15.1539   -4.1345 C   0  0  0  0  0  0  0  0  0  0  0  0
    2.0975   15.4818   -2.8054 C   0  0  0  0  0  0  0  0  0  0  0  0
    1.6641   16.6365   -3.4132 C   0  0  0  0  0  0  0  0  0  0  0  0
    1.1097   14.1562   -3.2108 S   0  0  0  0  0  0  0  0  0  0  0  0
   -3.2064   15.2521   -6.2702 N   0  0  0  0  0  0  0  0  0  0  0  0
   -2.2625   15.2797   -7.3739 C   0  0  0  0  0  0  0  0  0  0  0  0
   -3.2677   12.9284   -5.9372 N   0  0  0  0  0  0  0  0  0  0  0  0
   -5.2554   11.5993   -5.6236 N   0  0  0  0  0  0  0  0  0  0  0  0
   -7.2582   12.8934   -5.5959 N   0  0  0  0  0  0  0  0  0  0  0  0
   -3.9337   11.7758   -5.7378 C   0  0  0  0  0  0  0  0  0  0  0  0
   -5.9020   12.7684   -5.7083 C   0  0  0  0  0  0  0  0  0  0  0  0
   -7.6115   14.2120   -5.6910 C   0  0  0  0  0  0  0  0  0  0  0  0
   -6.4534   14.9384   -5.8765 C   0  0  0  0  0  0  0  0  0  0  0  0
   -5.3512   14.0286   -5.9075 C   0  0  0  0  0  0  0  0  0  0  0  0
   -3.9407   14.1001   -6.0392 C   0  0  0  0  0  0  0  0  0  0  0  0
   -7.8792   12.1118   -5.4453 H   0  0  0  0  0  0  0  0  0  0  0  0
 19 22  1  0  0  0
  1  8  1  0  0  0
 20 18  2  0  0  0
 21 19  1  0  0  0
 23 24  1  0  0  0
 24 21  2  0  0  0
 25 15  1  0  0  0
 25 17  2  0  0  0
  2 15  1  0  0  0
  2  3  1  0  0  0
  3  1  1  0  0  0
  4  1  1  0  0  0
  4  5  1  0  0  0
  5  6  1  0  0  0
  6  7  1  0  0  0
  6  2  1  0  0  0
  8 10  1  0  0  0
 11 14  1  0  0  0
 12 14  1  0  0  0
 13 10  1  0  0  0
 16 15  1  0  0  0
 20 17  1  0  0  0
 21 18  1  0  0  0
 22 23  2  0  0  0
 24 25  1  0  0  0
  8  9  2  0  0  0
 10 11  2  0  0  0
 12 13  2  0  0  0
 19 26  1  0  0  0
M  END
> <minimizedAffinity>
-8.86950

$$$$
CHEMBL1630796


 26 29  0  0  0  0  0  0  0  0999 V2000
   -0.6249   19.0727   -5.7725 N   0  0  0  0  0  0  0  0  0  0  0  0
   -0.5599   16.6129   -5.2069 C   0  0  0  0  0  0  0  0  0  0  0  0
   -0.5840   17.7121   -6.2944 C   0  0  0  0  0  0  0  0  0  0  0  0
    0.4509   19.3594   -4.8258 C   0  0  0  0  0  0  0  0  0  0  0  0
    0.4020   18.4284   -3.6165 C   0  0  0  0  0  0  0  0  0  0  0  0
    0.3386   16.9325   -3.9851 C   0  0  0  0  0  0  0  0  0  0  0  0
    1.7700   16.4283   -4.2460 C   0  0  0  0  0  0  0  0  0  0  0  0
   -1.5957   20.0594   -5.9818 C   0  0  0  0  0  0  0  0  0  0  0  0
   -1.5262   21.1223   -5.3516 O   0  0  0  0  0  0  0  0  0  0  0  0
   -2.7243   19.9093   -6.9239 C   0  0  0  0  0  0  0  0  0  0  0  0
   -3.5881   18.8475   -7.1209 C   0  0  0  0  0  0  0  0  0  0  0  0
   -4.0671   20.6241   -8.7443 C   0  0  0  0  0  0  0  0  0  0  0  0
   -3.0023   20.9202   -7.9262 C   0  0  0  0  0  0  0  0  0  0  0  0
   -4.7663   19.1262   -8.3385 S   0  0  0  0  0  0  0  0  0  0  0  0
   -1.9170   16.1284   -4.8561 N   0  0  0  0  0  0  0  0  0  0  0  0
   -2.6300   16.8259   -3.8002 C   0  0  0  0  0  0  0  0  0  0  0  0
   -3.4688   14.8594   -6.0791 N   0  0  0  0  0  0  0  0  0  0  0  0
   -3.5294   12.4525   -6.2149 N   0  0  0  0  0  0  0  0  0  0  0  0
   -1.7580   11.3972   -5.0170 N   0  0  0  0  0  0  0  0  0  0  0  0
   -3.9724   13.6833   -6.4974 C   0  0  0  0  0  0  0  0  0  0  0  0
   -2.4407   12.5037   -5.4377 C   0  0  0  0  0  0  0  0  0  0  0  0
   -0.6764   11.7766   -4.2694 C   0  0  0  0  0  0  0  0  0  0  0  0
   -0.6786   13.1547   -4.2079 C   0  0  0  0  0  0  0  0  0  0  0  0
   -1.8109   13.6362   -4.9358 C   0  0  0  0  0  0  0  0  0  0  0  0
   -2.3768   14.8912   -5.2773 C   0  0  0  0  0  0  0  0  0  0  0  0
   -2.0253   10.4534   -5.2557 H   0  0  0  0  0  0  0  0  0  0  0  0
 19 22  1  0  0  0
  1  8  1  0  0  0
 20 18  2  0  0  0
 21 19  1  0  0  0
 23 24  1  0  0  0
 24 21  2  0  0  0
 25 15  1  0  0  0
 25 17  2  0  0  0
  2 15  1  0  0  0
  2  3  1  0  0  0
  3  1  1  0  0  0
  4  1  1  0  0  0
  4  5  1  0  0  0
  5  6  1  0  0  0
  6  7  1  0  0  0
  6  2  1  0  0  0
  8 10  1  0  0  0
 11 14  1  0  0  0
 12 14  1  0  0  0
 13 10  1  0  0  0
 16 15  1  0  0  0
 20 17  1  0  0  0
 21 18  1  0  0  0
 22 23  2  0  0  0
 24 25  1  0  0  0
  8  9  2  0  0  0
 10 11  2  0  0  0
 12 13  2  0  0  0
 19 26  1  0  0  0
M  END
> <minimizedAffinity>
-8.47745

$$$$
CHEMBL1630796


 26 29  0  0  0  0  0  0  0  0999 V2000
   -1.4883   18.8190   -5.2825 N   0  0  0  0  0  0  0  0  0  0  0  0
   -3.2067   17.0505   -5.8251 C   0  0  0  0  0  0  0  0  0  0  0  0
   -2.3174   17.7383   -4.7632 C   0  0  0  0  0  0  0  0  0  0  0  0
   -2.2521   19.8378   -5.9998 C   0  0  0  0  0  0  0  0  0  0  0  0
   -2.9963   19.2479   -7.1955 C   0  0  0  0  0  0  0  0  0  0  0  0
   -3.8575   18.0173   -6.8470 C   0  0  0  0  0  0  0  0  0  0  0  0
   -5.2168   18.5030   -6.3107 C   0  0  0  0  0  0  0  0  0  0  0  0
   -0.0931   18.9338   -5.2673 C   0  0  0  0  0  0  0  0  0  0  0  0
    0.4453   19.8703   -5.8713 O   0  0  0  0  0  0  0  0  0  0  0  0
    0.7976   17.9867   -4.5648 C   0  0  0  0  0  0  0  0  0  0  0  0
    1.1725   16.6981   -4.8985 C   0  0  0  0  0  0  0  0  0  0  0  0
    2.1271   17.3067   -2.7214 C   0  0  0  0  0  0  0  0  0  0  0  0
    1.3381   18.2983   -3.2554 C   0  0  0  0  0  0  0  0  0  0  0  0
    2.2442   15.9715   -3.7707 S   0  0  0  0  0  0  0  0  0  0  0  0
   -2.5536   15.8671   -6.4354 N   0  0  0  0  0  0  0  0  0  0  0  0
   -1.8791   16.0507   -7.7086 C   0  0  0  0  0  0  0  0  0  0  0  0
   -3.9609   13.9872   -6.4291 N   0  0  0  0  0  0  0  0  0  0  0  0
   -3.6064   11.9629   -5.1673 N   0  0  0  0  0  0  0  0  0  0  0  0
   -1.5746   11.9755   -3.9190 N   0  0  0  0  0  0  0  0  0  0  0  0
   -4.2841   12.7488   -6.0122 C   0  0  0  0  0  0  0  0  0  0  0  0
   -2.4779   12.5584   -4.7627 C   0  0  0  0  0  0  0  0  0  0  0  0
   -0.5138   12.8174   -3.7224 C   0  0  0  0  0  0  0  0  0  0  0  0
   -0.7545   13.9636   -4.4514 C   0  0  0  0  0  0  0  0  0  0  0  0
   -2.0155   13.8222   -5.1098 C   0  0  0  0  0  0  0  0  0  0  0  0
   -2.8234   14.5818   -5.9942 C   0  0  0  0  0  0  0  0  0  0  0  0
   -1.6911   11.0510   -3.5306 H   0  0  0  0  0  0  0  0  0  0  0  0
 19 22  1  0  0  0
  1  8  1  0  0  0
 20 18  2  0  0  0
 21 19  1  0  0  0
 23 24  1  0  0  0
 24 21  2  0  0  0
 25 15  1  0  0  0
 25 17  2  0  0  0
  2 15  1  0  0  0
  2  3  1  0  0  0
  3  1  1  0  0  0
  4  1  1  0  0  0
  4  5  1  0  0  0
  5  6  1  0  0  0
  6  7  1  0  0  0
  6  2  1  0  0  0
  8 10  1  0  0  0
 11 14  1  0  0  0
 12 14  1  0  0  0
 13 10  1  0  0  0
 16 15  1  0  0  0
 20 17  1  0  0  0
 21 18  1  0  0  0
 22 23  2  0  0  0
 24 25  1  0  0  0
  8  9  2  0  0  0
 10 11  2  0  0  0
 12 13  2  0  0  0
 19 26  1  0  0  0
M  END
> <minimizedAffinity>
-8.37240

$$$$
CHEMBL1630796


 26 29  0  0  0  0  0  0  0  0999 V2000
   -3.9898   18.7031   -6.3852 N   0  0  0  0  0  0  0  0  0  0  0  0
   -4.5969   16.2616   -6.1727 C   0  0  0  0  0  0  0  0  0  0  0  0
   -4.0543   17.5451   -5.5020 C   0  0  0  0  0  0  0  0  0  0  0  0
   -5.2638   19.0043   -7.0346 C   0  0  0  0  0  0  0  0  0  0  0  0
   -5.7539   17.8353   -7.8859 C   0  0  0  0  0  0  0  0  0  0  0  0
   -5.7917   16.4902   -7.1331 C   0  0  0  0  0  0  0  0  0  0  0  0
   -7.1139   16.4015   -6.3487 C   0  0  0  0  0  0  0  0  0  0  0  0
   -2.8711   19.4617   -6.7502 C   0  0  0  0  0  0  0  0  0  0  0  0
   -2.9888   20.3387   -7.6155 O   0  0  0  0  0  0  0  0  0  0  0  0
   -1.5294   19.2766   -6.1591 C   0  0  0  0  0  0  0  0  0  0  0  0
   -0.8575   18.1181   -5.8143 C   0  0  0  0  0  0  0  0  0  0  0  0
    0.4742   20.0768   -5.1728 C   0  0  0  0  0  0  0  0  0  0  0  0
   -0.7390   20.4129   -5.7259 C   0  0  0  0  0  0  0  0  0  0  0  0
    0.7041   18.3903   -5.1540 S   0  0  0  0  0  0  0  0  0  0  0  0
   -3.5182   15.4115   -6.7325 N   0  0  0  0  0  0  0  0  0  0  0  0
   -3.0190   15.7401   -8.0563 C   0  0  0  0  0  0  0  0  0  0  0  0
   -1.9122   13.9473   -5.8430 N   0  0  0  0  0  0  0  0  0  0  0  0
   -2.3225   11.6965   -5.0807 N   0  0  0  0  0  0  0  0  0  0  0  0
   -4.6146   11.0554   -5.2298 N   0  0  0  0  0  0  0  0  0  0  0  0
   -1.5474   12.7597   -5.3249 C   0  0  0  0  0  0  0  0  0  0  0  0
   -3.5970   11.9512   -5.4016 C   0  0  0  0  0  0  0  0  0  0  0  0
   -5.7994   11.6201   -5.6171 C   0  0  0  0  0  0  0  0  0  0  0  0
   -5.5250   12.9002   -6.0522 C   0  0  0  0  0  0  0  0  0  0  0  0
   -4.1176   13.1229   -5.9375 C   0  0  0  0  0  0  0  0  0  0  0  0
   -3.2040   14.1807   -6.1793 C   0  0  0  0  0  0  0  0  0  0  0  0
   -4.4831   10.1285   -4.8520 H   0  0  0  0  0  0  0  0  0  0  0  0
 19 22  1  0  0  0
  1  8  1  0  0  0
 20 18  2  0  0  0
 21 19  1  0  0  0
 23 24  1  0  0  0
 24 21  2  0  0  0
 25 15  1  0  0  0
 25 17  2  0  0  0
  2 15  1  0  0  0
  2  3  1  0  0  0
  3  1  1  0  0  0
  4  1  1  0  0  0
  4  5  1  0  0  0
  5  6  1  0  0  0
  6  7  1  0  0  0
  6  2  1  0  0  0
  8 10  1  0  0  0
 11 14  1  0  0  0
 12 14  1  0  0  0
 13 10  1  0  0  0
 16 15  1  0  0  0
 20 17  1  0  0  0
 21 18  1  0  0  0
 22 23  2  0  0  0
 24 25  1  0  0  0
  8  9  2  0  0  0
 10 11  2  0  0  0
 12 13  2  0  0  0
 19 26  1  0  0  0
M  END
> <minimizedAffinity>
-8.28935

$$$$
CHEMBL1630796


 26 29  0  0  0  0  0  0  0  0999 V2000
   -4.4477   15.4731   -7.0925 N   0  0  0  0  0  0  0  0  0  0  0  0
   -3.1126   17.5947   -6.7906 C   0  0  0  0  0  0  0  0  0  0  0  0
   -3.1992   16.1681   -7.3812 C   0  0  0  0  0  0  0  0  0  0  0  0
   -5.6334   16.2289   -7.4908 C   0  0  0  0  0  0  0  0  0  0  0  0
   -5.7107   17.5761   -6.7763 C   0  0  0  0  0  0  0  0  0  0  0  0
   -4.4230   18.4163   -6.8915 C   0  0  0  0  0  0  0  0  0  0  0  0
   -4.4537   19.1845   -8.2258 C   0  0  0  0  0  0  0  0  0  0  0  0
   -4.6372   14.2657   -6.4097 C   0  0  0  0  0  0  0  0  0  0  0  0
   -5.7874   13.8901   -6.1491 O   0  0  0  0  0  0  0  0  0  0  0  0
   -3.5291   13.3937   -5.9675 C   0  0  0  0  0  0  0  0  0  0  0  0
   -3.3945   12.0188   -6.0312 C   0  0  0  0  0  0  0  0  0  0  0  0
   -1.4626   12.9929   -4.8735 C   0  0  0  0  0  0  0  0  0  0  0  0
   -2.3972   13.9332   -5.2386 C   0  0  0  0  0  0  0  0  0  0  0  0
   -1.9121   11.4348   -5.3910 S   0  0  0  0  0  0  0  0  0  0  0  0
   -2.4792   17.6190   -5.4497 N   0  0  0  0  0  0  0  0  0  0  0  0
   -3.2963   17.2379   -4.3109 C   0  0  0  0  0  0  0  0  0  0  0  0
   -1.1052   19.4969   -5.7658 N   0  0  0  0  0  0  0  0  0  0  0  0
    1.1501   19.7491   -4.9500 N   0  0  0  0  0  0  0  0  0  0  0  0
    1.8991   17.8868   -3.6627 N   0  0  0  0  0  0  0  0  0  0  0  0
    0.0559   20.1580   -5.6031 C   0  0  0  0  0  0  0  0  0  0  0  0
    0.9598   18.5385   -4.4113 C   0  0  0  0  0  0  0  0  0  0  0  0
    1.3961   16.6912   -3.2264 C   0  0  0  0  0  0  0  0  0  0  0  0
    0.1116   16.5790   -3.7170 C   0  0  0  0  0  0  0  0  0  0  0  0
   -0.1780   17.7447   -4.4921 C   0  0  0  0  0  0  0  0  0  0  0  0
   -1.2731   18.2640   -5.2289 C   0  0  0  0  0  0  0  0  0  0  0  0
    2.8129   18.2661   -3.4619 H   0  0  0  0  0  0  0  0  0  0  0  0
 19 22  1  0  0  0
  1  8  1  0  0  0
 20 18  2  0  0  0
 21 19  1  0  0  0
 23 24  1  0  0  0
 24 21  2  0  0  0
 25 15  1  0  0  0
 25 17  2  0  0  0
  2 15  1  0  0  0
  2  3  1  0  0  0
  3  1  1  0  0  0
  4  1  1  0  0  0
  4  5  1  0  0  0
  5  6  1  0  0  0
  6  7  1  0  0  0
  6  2  1  0  0  0
  8 10  1  0  0  0
 11 14  1  0  0  0
 12 14  1  0  0  0
 13 10  1  0  0  0
 16 15  1  0  0  0
 20 17  1  0  0  0
 21 18  1  0  0  0
 22 23  2  0  0  0
 24 25  1  0  0  0
  8  9  2  0  0  0
 10 11  2  0  0  0
 12 13  2  0  0  0
 19 26  1  0  0  0
M  END
> <minimizedAffinity>
-8.26396

$$$$
CHEMBL1630796


 26 29  0  0  0  0  0  0  0  0999 V2000
   -4.6794   15.6763   -7.2146 N   0  0  0  0  0  0  0  0  0  0  0  0
   -3.3212   17.8025   -7.1172 C   0  0  0  0  0  0  0  0  0  0  0  0
   -3.4457   16.3429   -7.6130 C   0  0  0  0  0  0  0  0  0  0  0  0
   -5.8820   16.4150   -7.5940 C   0  0  0  0  0  0  0  0  0  0  0  0
   -5.9147   17.8041   -6.9609 C   0  0  0  0  0  0  0  0  0  0  0  0
   -4.6317   18.6260   -7.1975 C   0  0  0  0  0  0  0  0  0  0  0  0
   -4.7321   19.3109   -8.5731 C   0  0  0  0  0  0  0  0  0  0  0  0
   -4.8363   14.5145   -6.4494 C   0  0  0  0  0  0  0  0  0  0  0  0
   -5.9720   14.1642   -6.1041 O   0  0  0  0  0  0  0  0  0  0  0  0
   -3.7093   13.6632   -6.0149 C   0  0  0  0  0  0  0  0  0  0  0  0
   -3.6418   12.2935   -5.8363 C   0  0  0  0  0  0  0  0  0  0  0  0
   -1.5165   13.3264   -5.1748 C   0  0  0  0  0  0  0  0  0  0  0  0
   -2.4574   14.2469   -5.5723 C   0  0  0  0  0  0  0  0  0  0  0  0
   -2.1030   11.7349   -5.3179 S   0  0  0  0  0  0  0  0  0  0  0  0
   -2.6154   17.9043   -5.8168 N   0  0  0  0  0  0  0  0  0  0  0  0
   -3.3409   17.5070   -4.6228 C   0  0  0  0  0  0  0  0  0  0  0  0
   -0.3019   17.9456   -5.4167 N   0  0  0  0  0  0  0  0  0  0  0  0
    1.0773   19.9210   -5.3112 N   0  0  0  0  0  0  0  0  0  0  0  0
   -0.1266   21.9337   -5.7431 N   0  0  0  0  0  0  0  0  0  0  0  0
    0.8621   18.6015   -5.2529 C   0  0  0  0  0  0  0  0  0  0  0  0
   -0.0548   20.5772   -5.5933 C   0  0  0  0  0  0  0  0  0  0  0  0
   -1.4069   22.2978   -6.0606 C   0  0  0  0  0  0  0  0  0  0  0  0
   -2.1657   21.1465   -6.1047 C   0  0  0  0  0  0  0  0  0  0  0  0
   -1.3200   20.0374   -5.7910 C   0  0  0  0  0  0  0  0  0  0  0  0
   -1.4417   18.6283   -5.6834 C   0  0  0  0  0  0  0  0  0  0  0  0
    0.6690   22.5477   -5.6471 H   0  0  0  0  0  0  0  0  0  0  0  0
 19 22  1  0  0  0
  1  8  1  0  0  0
 20 18  2  0  0  0
 21 19  1  0  0  0
 23 24  1  0  0  0
 24 21  2  0  0  0
 25 15  1  0  0  0
 25 17  2  0  0  0
  2 15  1  0  0  0
  2  3  1  0  0  0
  3  1  1  0  0  0
  4  1  1  0  0  0
  4  5  1  0  0  0
  5  6  1  0  0  0
  6  7  1  0  0  0
  6  2  1  0  0  0
  8 10  1  0  0  0
 11 14  1  0  0  0
 12 14  1  0  0  0
 13 10  1  0  0  0
 16 15  1  0  0  0
 20 17  1  0  0  0
 21 18  1  0  0  0
 22 23  2  0  0  0
 24 25  1  0  0  0
  8  9  2  0  0  0
 10 11  2  0  0  0
 12 13  2  0  0  0
 19 26  1  0  0  0
M  END
> <minimizedAffinity>
-8.22396

$$$$
CHEMBL3693610


 29 33  0  0  0  0  0  0  0  0999 V2000
   -0.2285   16.9118   -5.0495 O   0  0  0  0  0  0  0  0  0  0  0  0
   -1.1790   17.3810   -5.6740 C   0  0  0  0  0  0  0  0  0  0  0  0
   -0.4532   19.6383   -5.1550 C   0  0  0  0  0  0  0  0  0  0  0  0
   -0.8776   21.0294   -5.5787 C   0  0  0  0  0  0  0  0  0  0  0  0
   -2.3917   20.9179   -5.6199 C   0  0  0  0  0  0  0  0  0  0  0  0
   -2.6608   19.4914   -6.1622 C   0  0  0  0  0  0  0  0  0  0  0  0
   -2.8561   19.5104   -7.6883 C   0  0  0  0  0  0  0  0  0  0  0  0
   -4.1403   18.7316   -7.9827 C   0  0  0  0  0  0  0  0  0  0  0  0
   -3.9911   18.9621   -5.5840 C   0  0  0  0  0  0  0  0  0  0  0  0
   -1.4460   18.7423   -5.7271 N   0  0  0  0  0  0  0  0  0  0  0  0
   -4.6509   18.3088   -6.7012 N   0  0  0  0  0  0  0  0  0  0  0  0
   -5.7520   17.5178   -6.4834 C   0  0  0  0  0  0  0  0  0  0  0  0
   -6.8449   16.0056   -5.0587 C   0  0  0  0  0  0  0  0  0  0  0  0
   -7.7873   16.3862   -7.0184 C   0  0  0  0  0  0  0  0  0  0  0  0
   -8.3246   17.0592   -9.0834 C   0  0  0  0  0  0  0  0  0  0  0  0
   -7.1737   17.7231   -8.7133 C   0  0  0  0  0  0  0  0  0  0  0  0
   -6.8041   17.2895   -7.4028 C   0  0  0  0  0  0  0  0  0  0  0  0
   -5.8168   16.8403   -5.3009 N   0  0  0  0  0  0  0  0  0  0  0  0
   -7.8756   15.7196   -5.8616 N   0  0  0  0  0  0  0  0  0  0  0  0
   -8.6845   16.2494   -8.0406 N   0  0  0  0  0  0  0  0  0  0  0  0
   -9.4784   15.6261   -8.0055 H   0  0  0  0  0  0  0  0  0  0  0  0
   -2.0030   16.4228   -6.4239 C   0  0  0  0  0  0  0  0  0  0  0  0
   -1.9036   16.3956   -7.8187 C   0  0  0  0  0  0  0  0  0  0  0  0
   -2.6335   15.4581   -8.5477 C   0  0  0  0  0  0  0  0  0  0  0  0
   -3.4285   14.5261   -7.8781 C   0  0  0  0  0  0  0  0  0  0  0  0
   -3.4763   14.5119   -6.4768 C   0  0  0  0  0  0  0  0  0  0  0  0
   -2.7499   15.4563   -5.7443 C   0  0  0  0  0  0  0  0  0  0  0  0
   -4.2641   13.5200   -5.8032 C   0  0  0  0  0  0  0  0  0  0  0  0
   -4.8997   12.7000   -5.2843 N   0  0  0  0  0  0  0  0  0  0  0  0
  2 10  1  0  0  0
  2 22  1  0  0  0
  3 10  1  0  0  0
  3  4  1  0  0  0
  4  5  1  0  0  0
  5  6  1  0  0  0
  6  7  1  0  0  0
  6 10  1  0  0  0
  7  8  1  0  0  0
  8 11  1  0  0  0
  9 11  1  0  0  0
  9  6  1  0  0  0
 13 18  2  0  0  0
 14 19  2  0  0  0
 14 20  1  0  0  0
 16 17  1  0  0  0
 17 12  2  0  0  0
 23 24  2  0  0  0
 25 26  2  0  0  0
 26 28  1  0  0  0
 27 22  2  0  0  0
 11 12  1  0  0  0
 20 15  1  0  0  0
  2  1  2  0  0  0
 12 18  1  0  0  0
 13 19  1  0  0  0
 15 16  2  0  0  0
 17 14  1  0  0  0
 22 23  1  0  0  0
 24 25  1  0  0  0
 26 27  1  0  0  0
 28 29  3  0  0  0
 20 21  1  0  0  0
M  END
> <minimizedAffinity>
-7.59876

$$$$
CHEMBL3693610


 29 33  0  0  0  0  0  0  0  0999 V2000
   -0.2652   13.6384   -3.9631 O   0  0  0  0  0  0  0  0  0  0  0  0
   -0.6340   14.6650   -4.5320 C   0  0  0  0  0  0  0  0  0  0  0  0
    0.9890   15.9782   -3.2939 C   0  0  0  0  0  0  0  0  0  0  0  0
    1.4732   17.4128   -3.3404 C   0  0  0  0  0  0  0  0  0  0  0  0
    0.1922   18.1889   -3.5924 C   0  0  0  0  0  0  0  0  0  0  0  0
   -0.6230   17.2894   -4.5556 C   0  0  0  0  0  0  0  0  0  0  0  0
   -0.3733   17.6845   -6.0216 C   0  0  0  0  0  0  0  0  0  0  0  0
   -1.7458   17.8380   -6.6814 C   0  0  0  0  0  0  0  0  0  0  0  0
   -2.1320   17.5158   -4.3199 C   0  0  0  0  0  0  0  0  0  0  0  0
   -0.1339   15.9210   -4.2167 N   0  0  0  0  0  0  0  0  0  0  0  0
   -2.7156   17.5613   -5.6495 N   0  0  0  0  0  0  0  0  0  0  0  0
   -4.0789   17.5107   -5.8050 C   0  0  0  0  0  0  0  0  0  0  0  0
   -6.1196   16.6267   -5.0530 C   0  0  0  0  0  0  0  0  0  0  0  0
   -6.1859   17.8784   -6.8702 C   0  0  0  0  0  0  0  0  0  0  0  0
   -5.7436   19.1551   -8.6534 C   0  0  0  0  0  0  0  0  0  0  0  0
   -4.5573   18.9521   -7.9798 C   0  0  0  0  0  0  0  0  0  0  0  0
   -4.8180   18.1204   -6.8473 C   0  0  0  0  0  0  0  0  0  0  0  0
   -4.7871   16.7586   -4.9136 N   0  0  0  0  0  0  0  0  0  0  0  0
   -6.9009   17.1537   -6.0019 N   0  0  0  0  0  0  0  0  0  0  0  0
   -6.7247   18.4947   -7.9649 N   0  0  0  0  0  0  0  0  0  0  0  0
   -7.7032   18.4418   -8.2088 H   0  0  0  0  0  0  0  0  0  0  0  0
   -1.6050   14.4935   -5.6216 C   0  0  0  0  0  0  0  0  0  0  0  0
   -1.1840   14.7038   -6.9385 C   0  0  0  0  0  0  0  0  0  0  0  0
   -2.0719   14.4933   -7.9924 C   0  0  0  0  0  0  0  0  0  0  0  0
   -3.3641   14.0352   -7.7287 C   0  0  0  0  0  0  0  0  0  0  0  0
   -3.7645   13.7617   -6.4130 C   0  0  0  0  0  0  0  0  0  0  0  0
   -2.8769   13.9791   -5.3542 C   0  0  0  0  0  0  0  0  0  0  0  0
   -5.0813   13.2503   -6.1634 C   0  0  0  0  0  0  0  0  0  0  0  0
   -6.1393   12.8115   -5.9788 N   0  0  0  0  0  0  0  0  0  0  0  0
  2 10  1  0  0  0
  2 22  1  0  0  0
  3 10  1  0  0  0
  3  4  1  0  0  0
  4  5  1  0  0  0
  5  6  1  0  0  0
  6  7  1  0  0  0
  6 10  1  0  0  0
  7  8  1  0  0  0
  8 11  1  0  0  0
  9 11  1  0  0  0
  9  6  1  0  0  0
 13 18  2  0  0  0
 14 19  2  0  0  0
 14 20  1  0  0  0
 16 17  1  0  0  0
 17 12  2  0  0  0
 23 24  2  0  0  0
 25 26  2  0  0  0
 26 28  1  0  0  0
 27 22  2  0  0  0
 11 12  1  0  0  0
 20 15  1  0  0  0
  2  1  2  0  0  0
 12 18  1  0  0  0
 13 19  1  0  0  0
 15 16  2  0  0  0
 17 14  1  0  0  0
 22 23  1  0  0  0
 24 25  1  0  0  0
 26 27  1  0  0  0
 28 29  3  0  0  0
 20 21  1  0  0  0
M  END
> <minimizedAffinity>
-7.43967

$$$$
CHEMBL3693610


 29 33  0  0  0  0  0  0  0  0999 V2000
   -7.0044   16.4057   -5.6055 O   0  0  0  0  0  0  0  0  0  0  0  0
   -5.8644   16.2832   -6.0516 C   0  0  0  0  0  0  0  0  0  0  0  0
   -5.9473   13.8822   -5.7053 C   0  0  0  0  0  0  0  0  0  0  0  0
   -5.0545   12.7118   -6.0631 C   0  0  0  0  0  0  0  0  0  0  0  0
   -3.6621   13.2696   -5.8246 C   0  0  0  0  0  0  0  0  0  0  0  0
   -3.7509   14.7454   -6.2888 C   0  0  0  0  0  0  0  0  0  0  0  0
   -3.3019   14.8897   -7.7535 C   0  0  0  0  0  0  0  0  0  0  0  0
   -2.2846   16.0324   -7.7969 C   0  0  0  0  0  0  0  0  0  0  0  0
   -2.7635   15.6043   -5.4695 C   0  0  0  0  0  0  0  0  0  0  0  0
   -5.1915   15.0692   -6.0735 N   0  0  0  0  0  0  0  0  0  0  0  0
   -2.1530   16.4987   -6.4378 N   0  0  0  0  0  0  0  0  0  0  0  0
   -1.3985   17.5636   -6.0112 C   0  0  0  0  0  0  0  0  0  0  0  0
   -0.7437   19.7890   -6.3722 C   0  0  0  0  0  0  0  0  0  0  0  0
    0.2560   18.7116   -4.7250 C   0  0  0  0  0  0  0  0  0  0  0  0
    0.9910   17.2232   -3.2250 C   0  0  0  0  0  0  0  0  0  0  0  0
   -0.0014   16.6156   -3.9653 C   0  0  0  0  0  0  0  0  0  0  0  0
   -0.4691   17.5467   -4.9433 C   0  0  0  0  0  0  0  0  0  0  0  0
   -1.5034   18.7304   -6.7107 N   0  0  0  0  0  0  0  0  0  0  0  0
    0.1619   19.8681   -5.3913 N   0  0  0  0  0  0  0  0  0  0  0  0
    1.1353   18.4983   -3.7004 N   0  0  0  0  0  0  0  0  0  0  0  0
    1.7898   19.1947   -3.3738 H   0  0  0  0  0  0  0  0  0  0  0  0
   -5.2554   17.4916   -6.6247 C   0  0  0  0  0  0  0  0  0  0  0  0
   -5.1414   17.5942   -8.0148 C   0  0  0  0  0  0  0  0  0  0  0  0
   -4.6181   18.7542   -8.5838 C   0  0  0  0  0  0  0  0  0  0  0  0
   -4.2483   19.8221   -7.7642 C   0  0  0  0  0  0  0  0  0  0  0  0
   -4.4241   19.7436   -6.3753 C   0  0  0  0  0  0  0  0  0  0  0  0
   -4.9426   18.5778   -5.8024 C   0  0  0  0  0  0  0  0  0  0  0  0
   -4.0794   20.8663   -5.5514 C   0  0  0  0  0  0  0  0  0  0  0  0
   -3.7994   21.7921   -4.9109 N   0  0  0  0  0  0  0  0  0  0  0  0
  2 10  1  0  0  0
  2 22  1  0  0  0
  3 10  1  0  0  0
  3  4  1  0  0  0
  4  5  1  0  0  0
  5  6  1  0  0  0
  6  7  1  0  0  0
  6 10  1  0  0  0
  7  8  1  0  0  0
  8 11  1  0  0  0
  9 11  1  0  0  0
  9  6  1  0  0  0
 13 18  2  0  0  0
 14 19  2  0  0  0
 14 20  1  0  0  0
 16 17  1  0  0  0
 17 12  2  0  0  0
 23 24  2  0  0  0
 25 26  2  0  0  0
 26 28  1  0  0  0
 27 22  2  0  0  0
 11 12  1  0  0  0
 20 15  1  0  0  0
  2  1  2  0  0  0
 12 18  1  0  0  0
 13 19  1  0  0  0
 15 16  2  0  0  0
 17 14  1  0  0  0
 22 23  1  0  0  0
 24 25  1  0  0  0
 26 27  1  0  0  0
 28 29  3  0  0  0
 20 21  1  0  0  0
M  END
> <minimizedAffinity>
-7.31446

$$$$
CHEMBL3693610


 29 33  0  0  0  0  0  0  0  0999 V2000
   -1.0119   18.5049   -5.0394 O   0  0  0  0  0  0  0  0  0  0  0  0
   -1.9942   18.1501   -5.6896 C   0  0  0  0  0  0  0  0  0  0  0  0
   -2.8712   20.4132   -5.6696 C   0  0  0  0  0  0  0  0  0  0  0  0
   -4.0316   21.1237   -6.3355 C   0  0  0  0  0  0  0  0  0  0  0  0
   -5.1399   20.0873   -6.2680 C   0  0  0  0  0  0  0  0  0  0  0  0
   -4.4207   18.7347   -6.5011 C   0  0  0  0  0  0  0  0  0  0  0  0
   -4.4620   18.3382   -7.9872 C   0  0  0  0  0  0  0  0  0  0  0  0
   -4.9564   16.8910   -8.0484 C   0  0  0  0  0  0  0  0  0  0  0  0
   -5.1760   17.6135   -5.7551 C   0  0  0  0  0  0  0  0  0  0  0  0
   -3.0432   19.0062   -5.9958 N   0  0  0  0  0  0  0  0  0  0  0  0
   -5.1952   16.4948   -6.6817 N   0  0  0  0  0  0  0  0  0  0  0  0
   -5.5803   15.2497   -6.2497 C   0  0  0  0  0  0  0  0  0  0  0  0
   -5.1836   12.9362   -6.2912 C   0  0  0  0  0  0  0  0  0  0  0  0
   -6.9900   13.6176   -5.2209 C   0  0  0  0  0  0  0  0  0  0  0  0
   -8.6765   14.7697   -4.3076 C   0  0  0  0  0  0  0  0  0  0  0  0
   -7.8100   15.6784   -4.8783 C   0  0  0  0  0  0  0  0  0  0  0  0
   -6.7355   14.9577   -5.4849 C   0  0  0  0  0  0  0  0  0  0  0  0
   -4.8199   14.1853   -6.6375 N   0  0  0  0  0  0  0  0  0  0  0  0
   -6.2536   12.5606   -5.5822 N   0  0  0  0  0  0  0  0  0  0  0  0
   -8.1628   13.5202   -4.5253 N   0  0  0  0  0  0  0  0  0  0  0  0
   -8.5695   12.6412   -4.2393 H   0  0  0  0  0  0  0  0  0  0  0  0
   -1.9817   16.7673   -6.1871 C   0  0  0  0  0  0  0  0  0  0  0  0
   -1.8557   16.5473   -7.5625 C   0  0  0  0  0  0  0  0  0  0  0  0
   -1.7856   15.2443   -8.0527 C   0  0  0  0  0  0  0  0  0  0  0  0
   -1.8013   14.1678   -7.1638 C   0  0  0  0  0  0  0  0  0  0  0  0
   -1.8614   14.3913   -5.7809 C   0  0  0  0  0  0  0  0  0  0  0  0
   -1.9388   15.6980   -5.2880 C   0  0  0  0  0  0  0  0  0  0  0  0
   -1.8329   13.2757   -4.8794 C   0  0  0  0  0  0  0  0  0  0  0  0
   -1.8053   12.3544   -4.1750 N   0  0  0  0  0  0  0  0  0  0  0  0
  2 10  1  0  0  0
  2 22  1  0  0  0
  3 10  1  0  0  0
  3  4  1  0  0  0
  4  5  1  0  0  0
  5  6  1  0  0  0
  6  7  1  0  0  0
  6 10  1  0  0  0
  7  8  1  0  0  0
  8 11  1  0  0  0
  9 11  1  0  0  0
  9  6  1  0  0  0
 13 18  2  0  0  0
 14 19  2  0  0  0
 14 20  1  0  0  0
 16 17  1  0  0  0
 17 12  2  0  0  0
 23 24  2  0  0  0
 25 26  2  0  0  0
 26 28  1  0  0  0
 27 22  2  0  0  0
 11 12  1  0  0  0
 20 15  1  0  0  0
  2  1  2  0  0  0
 12 18  1  0  0  0
 13 19  1  0  0  0
 15 16  2  0  0  0
 17 14  1  0  0  0
 22 23  1  0  0  0
 24 25  1  0  0  0
 26 27  1  0  0  0
 28 29  3  0  0  0
 20 21  1  0  0  0
M  END
> <minimizedAffinity>
-7.26499

$$$$
CHEMBL3693610


 29 33  0  0  0  0  0  0  0  0999 V2000
   11.4406    7.9760    4.2949 O   0  0  0  0  0  0  0  0  0  0  0  0
   10.5783    7.7538    3.4461 C   0  0  0  0  0  0  0  0  0  0  0  0
   10.2718    5.5002    4.2939 C   0  0  0  0  0  0  0  0  0  0  0  0
    9.3007    4.3702    4.0204 C   0  0  0  0  0  0  0  0  0  0  0  0
    9.1303    4.4349    2.5126 C   0  0  0  0  0  0  0  0  0  0  0  0
    9.1496    5.9493    2.1848 C   0  0  0  0  0  0  0  0  0  0  0  0
    7.7215    6.5199    2.1344 C   0  0  0  0  0  0  0  0  0  0  0  0
    7.6017    7.3055    0.8264 C   0  0  0  0  0  0  0  0  0  0  0  0
    9.7282    6.1635    0.7695 C   0  0  0  0  0  0  0  0  0  0  0  0
    9.9764    6.5124    3.2919 N   0  0  0  0  0  0  0  0  0  0  0  0
    8.8788    7.1767    0.1674 N   0  0  0  0  0  0  0  0  0  0  0  0
    9.2542    7.7804   -1.0073 C   0  0  0  0  0  0  0  0  0  0  0  0
    8.8623    9.5018   -2.5546 C   0  0  0  0  0  0  0  0  0  0  0  0
   10.4166    8.0251   -3.0805 C   0  0  0  0  0  0  0  0  0  0  0  0
   11.8415    6.3028   -3.1779 C   0  0  0  0  0  0  0  0  0  0  0  0
   11.1760    6.2274   -1.9722 C   0  0  0  0  0  0  0  0  0  0  0  0
   10.2458    7.3099   -1.9016 C   0  0  0  0  0  0  0  0  0  0  0  0
    8.5752    8.9024   -1.3839 N   0  0  0  0  0  0  0  0  0  0  0  0
    9.7699    9.1317   -3.4645 N   0  0  0  0  0  0  0  0  0  0  0  0
   11.3673    7.4025   -3.8402 N   0  0  0  0  0  0  0  0  0  0  0  0
   11.6476    7.7242   -4.7556 H   0  0  0  0  0  0  0  0  0  0  0  0
   10.1633    8.8985    2.6232 C   0  0  0  0  0  0  0  0  0  0  0  0
    9.0214    9.6158    2.9937 C   0  0  0  0  0  0  0  0  0  0  0  0
    8.6398   10.7386    2.2611 C   0  0  0  0  0  0  0  0  0  0  0  0
    9.4227   11.1635    1.1860 C   0  0  0  0  0  0  0  0  0  0  0  0
   10.6030   10.4823    0.8560 C   0  0  0  0  0  0  0  0  0  0  0  0
   10.9834    9.3515    1.5859 C   0  0  0  0  0  0  0  0  0  0  0  0
   11.4187   10.9576   -0.2242 C   0  0  0  0  0  0  0  0  0  0  0  0
   12.0605   11.3257   -1.1178 N   0  0  0  0  0  0  0  0  0  0  0  0
  2 10  1  0  0  0
  2 22  1  0  0  0
  3 10  1  0  0  0
  3  4  1  0  0  0
  4  5  1  0  0  0
  5  6  1  0  0  0
  6  7  1  0  0  0
  6 10  1  0  0  0
  7  8  1  0  0  0
  8 11  1  0  0  0
  9 11  1  0  0  0
  9  6  1  0  0  0
 13 18  2  0  0  0
 14 19  2  0  0  0
 14 20  1  0  0  0
 16 17  1  0  0  0
 17 12  2  0  0  0
 23 24  2  0  0  0
 25 26  2  0  0  0
 26 28  1  0  0  0
 27 22  2  0  0  0
 11 12  1  0  0  0
 20 15  1  0  0  0
  2  1  2  0  0  0
 12 18  1  0  0  0
 13 19  1  0  0  0
 15 16  2  0  0  0
 17 14  1  0  0  0
 22 23  1  0  0  0
 24 25  1  0  0  0
 26 27  1  0  0  0
 28 29  3  0  0  0
 20 21  1  0  0  0
M  END
> <minimizedAffinity>
-6.38313

$$$$
CHEMBL3693610


 29 33  0  0  0  0  0  0  0  0999 V2000
    9.0347   10.7447    4.2338 O   0  0  0  0  0  0  0  0  0  0  0  0
    9.7314   10.0755    3.4718 C   0  0  0  0  0  0  0  0  0  0  0  0
   11.7356   10.7168    4.6815 C   0  0  0  0  0  0  0  0  0  0  0  0
   13.1950   10.3135    4.6368 C   0  0  0  0  0  0  0  0  0  0  0  0
   13.4555   10.1695    3.1474 C   0  0  0  0  0  0  0  0  0  0  0  0
   12.1465    9.5629    2.5817 C   0  0  0  0  0  0  0  0  0  0  0  0
   12.2381    8.0288    2.5068 C   0  0  0  0  0  0  0  0  0  0  0  0
   11.7999    7.6248    1.0971 C   0  0  0  0  0  0  0  0  0  0  0  0
   11.9466   10.0346    1.1252 C   0  0  0  0  0  0  0  0  0  0  0  0
   11.1174   10.0511    3.5456 N   0  0  0  0  0  0  0  0  0  0  0  0
   11.4922    8.8552    0.4090 N   0  0  0  0  0  0  0  0  0  0  0  0
   10.9888    8.9736   -0.8630 C   0  0  0  0  0  0  0  0  0  0  0  0
   10.2427   10.4086   -2.5645 C   0  0  0  0  0  0  0  0  0  0  0  0
   10.0337    8.2411   -2.9270 C   0  0  0  0  0  0  0  0  0  0  0  0
   10.0022    6.0067   -2.8156 C   0  0  0  0  0  0  0  0  0  0  0  0
   10.5884    6.4749   -1.6583 C   0  0  0  0  0  0  0  0  0  0  0  0
   10.5984    7.9032   -1.7034 C   0  0  0  0  0  0  0  0  0  0  0  0
   10.7880   10.2337   -1.3461 N   0  0  0  0  0  0  0  0  0  0  0  0
    9.8370    9.4677   -3.4240 N   0  0  0  0  0  0  0  0  0  0  0  0
    9.6703    7.0945   -3.5766 N   0  0  0  0  0  0  0  0  0  0  0  0
    9.2153    7.0853   -4.4782 H   0  0  0  0  0  0  0  0  0  0  0  0
    9.0149    9.2413    2.4970 C   0  0  0  0  0  0  0  0  0  0  0  0
    8.5048    9.8425    1.3419 C   0  0  0  0  0  0  0  0  0  0  0  0
    7.8702    9.0623    0.3765 C   0  0  0  0  0  0  0  0  0  0  0  0
    7.7833    7.6798    0.5504 C   0  0  0  0  0  0  0  0  0  0  0  0
    8.3529    7.0700    1.6773 C   0  0  0  0  0  0  0  0  0  0  0  0
    8.9838    7.8523    2.6500 C   0  0  0  0  0  0  0  0  0  0  0  0
    8.2927    5.6437    1.8193 C   0  0  0  0  0  0  0  0  0  0  0  0
    8.2131    4.4915    1.9291 N   0  0  0  0  0  0  0  0  0  0  0  0
  2 10  1  0  0  0
  2 22  1  0  0  0
  3 10  1  0  0  0
  3  4  1  0  0  0
  4  5  1  0  0  0
  5  6  1  0  0  0
  6  7  1  0  0  0
  6 10  1  0  0  0
  7  8  1  0  0  0
  8 11  1  0  0  0
  9 11  1  0  0  0
  9  6  1  0  0  0
 13 18  2  0  0  0
 14 19  2  0  0  0
 14 20  1  0  0  0
 16 17  1  0  0  0
 17 12  2  0  0  0
 23 24  2  0  0  0
 25 26  2  0  0  0
 26 28  1  0  0  0
 27 22  2  0  0  0
 11 12  1  0  0  0
 20 15  1  0  0  0
  2  1  2  0  0  0
 12 18  1  0  0  0
 13 19  1  0  0  0
 15 16  2  0  0  0
 17 14  1  0  0  0
 22 23  1  0  0  0
 24 25  1  0  0  0
 26 27  1  0  0  0
 28 29  3  0  0  0
 20 21  1  0  0  0
M  END
> <minimizedAffinity>
-6.35112

$$$$
CHEMBL3693610


 29 33  0  0  0  0  0  0  0  0999 V2000
   -1.3870   15.3837   -3.0853 O   0  0  0  0  0  0  0  0  0  0  0  0
   -1.3737   16.1187   -4.0719 C   0  0  0  0  0  0  0  0  0  0  0  0
    0.5789   17.2842   -3.2233 C   0  0  0  0  0  0  0  0  0  0  0  0
    1.5242   18.3364   -3.7655 C   0  0  0  0  0  0  0  0  0  0  0  0
    0.5893   19.2705   -4.5141 C   0  0  0  0  0  0  0  0  0  0  0  0
   -0.4675   18.3329   -5.1507 C   0  0  0  0  0  0  0  0  0  0  0  0
   -0.0735   17.9558   -6.5895 C   0  0  0  0  0  0  0  0  0  0  0  0
   -1.2999   18.2115   -7.4687 C   0  0  0  0  0  0  0  0  0  0  0  0
   -1.8125   19.0809   -5.2753 C   0  0  0  0  0  0  0  0  0  0  0  0
   -0.4805   17.1718   -4.2137 N   0  0  0  0  0  0  0  0  0  0  0  0
   -2.3231   18.7167   -6.5857 N   0  0  0  0  0  0  0  0  0  0  0  0
   -3.6190   19.0157   -6.9270 C   0  0  0  0  0  0  0  0  0  0  0  0
   -5.4567   18.5379   -8.3074 C   0  0  0  0  0  0  0  0  0  0  0  0
   -5.6539   20.2680   -6.9505 C   0  0  0  0  0  0  0  0  0  0  0  0
   -5.3667   21.9101   -5.4582 C   0  0  0  0  0  0  0  0  0  0  0  0
   -4.2284   21.1314   -5.4475 C   0  0  0  0  0  0  0  0  0  0  0  0
   -4.3863   20.0878   -6.4109 C   0  0  0  0  0  0  0  0  0  0  0  0
   -4.2081   18.2528   -7.8927 N   0  0  0  0  0  0  0  0  0  0  0  0
   -6.2539   19.5270   -7.8892 N   0  0  0  0  0  0  0  0  0  0  0  0
   -6.2240   21.3709   -6.3786 N   0  0  0  0  0  0  0  0  0  0  0  0
   -7.1389   21.7180   -6.6283 H   0  0  0  0  0  0  0  0  0  0  0  0
   -2.3266   15.7909   -5.1416 C   0  0  0  0  0  0  0  0  0  0  0  0
   -1.8632   15.1081   -6.2707 C   0  0  0  0  0  0  0  0  0  0  0  0
   -2.7585   14.7375   -7.2728 C   0  0  0  0  0  0  0  0  0  0  0  0
   -4.1186   15.0151   -7.1242 C   0  0  0  0  0  0  0  0  0  0  0  0
   -4.5914   15.6412   -5.9620 C   0  0  0  0  0  0  0  0  0  0  0  0
   -3.6933   16.0197   -4.9588 C   0  0  0  0  0  0  0  0  0  0  0  0
   -5.9973   15.8801   -5.8061 C   0  0  0  0  0  0  0  0  0  0  0  0
   -7.1344   16.0878   -5.7078 N   0  0  0  0  0  0  0  0  0  0  0  0
  2 10  1  0  0  0
  2 22  1  0  0  0
  3 10  1  0  0  0
  3  4  1  0  0  0
  4  5  1  0  0  0
  5  6  1  0  0  0
  6  7  1  0  0  0
  6 10  1  0  0  0
  7  8  1  0  0  0
  8 11  1  0  0  0
  9 11  1  0  0  0
  9  6  1  0  0  0
 13 18  2  0  0  0
 14 19  2  0  0  0
 14 20  1  0  0  0
 16 17  1  0  0  0
 17 12  2  0  0  0
 23 24  2  0  0  0
 25 26  2  0  0  0
 26 28  1  0  0  0
 27 22  2  0  0  0
 11 12  1  0  0  0
 20 15  1  0  0  0
  2  1  2  0  0  0
 12 18  1  0  0  0
 13 19  1  0  0  0
 15 16  2  0  0  0
 17 14  1  0  0  0
 22 23  1  0  0  0
 24 25  1  0  0  0
 26 27  1  0  0  0
 28 29  3  0  0  0
 20 21  1  0  0  0
M  END
> <minimizedAffinity>
-6.27984

$$$$
CHEMBL3693610


 29 33  0  0  0  0  0  0  0  0999 V2000
    9.3945   11.0807    4.9081 O   0  0  0  0  0  0  0  0  0  0  0  0
   10.0349   10.8477    3.8837 C   0  0  0  0  0  0  0  0  0  0  0  0
   10.5931   13.1986    3.6536 C   0  0  0  0  0  0  0  0  0  0  0  0
   11.4998   14.0058    2.7475 C   0  0  0  0  0  0  0  0  0  0  0  0
   11.3038   13.3367    1.3982 C   0  0  0  0  0  0  0  0  0  0  0  0
   11.1676   11.8290    1.7292 C   0  0  0  0  0  0  0  0  0  0  0  0
   12.5272   11.1166    1.6209 C   0  0  0  0  0  0  0  0  0  0  0  0
   12.3110    9.8739    0.7541 C   0  0  0  0  0  0  0  0  0  0  0  0
   10.2626   11.1498    0.6786 C   0  0  0  0  0  0  0  0  0  0  0  0
   10.6145   11.8477    3.1149 N   0  0  0  0  0  0  0  0  0  0  0  0
   10.9173    9.8876    0.3809 N   0  0  0  0  0  0  0  0  0  0  0  0
   10.2569    8.9226   -0.3389 C   0  0  0  0  0  0  0  0  0  0  0  0
    8.2667    8.2650   -1.3962 C   0  0  0  0  0  0  0  0  0  0  0  0
    9.8948    6.7760   -1.3239 C   0  0  0  0  0  0  0  0  0  0  0  0
   11.7832    5.6280   -0.9749 C   0  0  0  0  0  0  0  0  0  0  0  0
   11.9624    6.8945   -0.4592 C   0  0  0  0  0  0  0  0  0  0  0  0
   10.7569    7.6365   -0.6556 C   0  0  0  0  0  0  0  0  0  0  0  0
    8.9813    9.1969   -0.7380 N   0  0  0  0  0  0  0  0  0  0  0  0
    8.6459    7.0275   -1.7328 N   0  0  0  0  0  0  0  0  0  0  0  0
   10.5195    5.5725   -1.4972 N   0  0  0  0  0  0  0  0  0  0  0  0
   10.0823    4.7763   -1.9384 H   0  0  0  0  0  0  0  0  0  0  0  0
   10.2117    9.4314    3.5336 C   0  0  0  0  0  0  0  0  0  0  0  0
   11.4123    8.7988    3.8713 C   0  0  0  0  0  0  0  0  0  0  0  0
   11.5816    7.4421    3.5993 C   0  0  0  0  0  0  0  0  0  0  0  0
   10.5362    6.7143    3.0279 C   0  0  0  0  0  0  0  0  0  0  0  0
    9.3097    7.3344    2.7501 C   0  0  0  0  0  0  0  0  0  0  0  0
    9.1408    8.6972    3.0161 C   0  0  0  0  0  0  0  0  0  0  0  0
    8.2314    6.5623    2.2032 C   0  0  0  0  0  0  0  0  0  0  0  0
    7.3613    5.9186    1.7856 N   0  0  0  0  0  0  0  0  0  0  0  0
  2 10  1  0  0  0
  2 22  1  0  0  0
  3 10  1  0  0  0
  3  4  1  0  0  0
  4  5  1  0  0  0
  5  6  1  0  0  0
  6  7  1  0  0  0
  6 10  1  0  0  0
  7  8  1  0  0  0
  8 11  1  0  0  0
  9 11  1  0  0  0
  9  6  1  0  0  0
 13 18  2  0  0  0
 14 19  2  0  0  0
 14 20  1  0  0  0
 16 17  1  0  0  0
 17 12  2  0  0  0
 23 24  2  0  0  0
 25 26  2  0  0  0
 26 28  1  0  0  0
 27 22  2  0  0  0
 11 12  1  0  0  0
 20 15  1  0  0  0
  2  1  2  0  0  0
 12 18  1  0  0  0
 13 19  1  0  0  0
 15 16  2  0  0  0
 17 14  1  0  0  0
 22 23  1  0  0  0
 24 25  1  0  0  0
 26 27  1  0  0  0
 28 29  3  0  0  0
 20 21  1  0  0  0
M  END
> <minimizedAffinity>
-6.21345

$$$$
CHEMBL3693610


 29 33  0  0  0  0  0  0  0  0999 V2000
    1.1608   20.4443   -5.7088 O   0  0  0  0  0  0  0  0  0  0  0  0
    1.1565   21.2801   -4.8061 C   0  0  0  0  0  0  0  0  0  0  0  0
   -1.1112   21.9343   -5.3724 C   0  0  0  0  0  0  0  0  0  0  0  0
   -2.1541   22.8447   -4.7573 C   0  0  0  0  0  0  0  0  0  0  0  0
   -1.3266   24.0267   -4.2830 C   0  0  0  0  0  0  0  0  0  0  0  0
   -0.0050   23.3961   -3.7759 C   0  0  0  0  0  0  0  0  0  0  0  0
   -0.0664   23.1328   -2.2612 C   0  0  0  0  0  0  0  0  0  0  0  0
    1.2068   23.7266   -1.6539 C   0  0  0  0  0  0  0  0  0  0  0  0
    1.1533   24.3979   -3.9725 C   0  0  0  0  0  0  0  0  0  0  0  0
    0.0972   22.1515   -4.5926 N   0  0  0  0  0  0  0  0  0  0  0  0
    1.9394   24.3047   -2.7544 N   0  0  0  0  0  0  0  0  0  0  0  0
    3.1812   24.8870   -2.6902 C   0  0  0  0  0  0  0  0  0  0  0  0
    4.8460   26.1128   -3.8024 C   0  0  0  0  0  0  0  0  0  0  0  0
    5.3307   25.3874   -1.7745 C   0  0  0  0  0  0  0  0  0  0  0  0
    5.3608   24.4300    0.2474 C   0  0  0  0  0  0  0  0  0  0  0  0
    4.1170   24.2036   -0.3041 C   0  0  0  0  0  0  0  0  0  0  0  0
    4.0869   24.7917   -1.6062 C   0  0  0  0  0  0  0  0  0  0  0  0
    3.6136   25.5712   -3.7886 N   0  0  0  0  0  0  0  0  0  0  0  0
    5.7710   26.0706   -2.8374 N   0  0  0  0  0  0  0  0  0  0  0  0
    6.0871   25.1516   -0.6606 N   0  0  0  0  0  0  0  0  0  0  0  0
    7.0412   25.4663   -0.5581 H   0  0  0  0  0  0  0  0  0  0  0  0
    2.3209   21.2772   -3.9096 C   0  0  0  0  0  0  0  0  0  0  0  0
    2.2377   20.5814   -2.6993 C   0  0  0  0  0  0  0  0  0  0  0  0
    3.3475   20.5179   -1.8582 C   0  0  0  0  0  0  0  0  0  0  0  0
    4.5474   21.1158   -2.2480 C   0  0  0  0  0  0  0  0  0  0  0  0
    4.6490   21.7568   -3.4910 C   0  0  0  0  0  0  0  0  0  0  0  0
    3.5343   21.8272   -4.3328 C   0  0  0  0  0  0  0  0  0  0  0  0
    5.9013   22.3282   -3.8950 C   0  0  0  0  0  0  0  0  0  0  0  0
    6.8985   22.8153   -4.2328 N   0  0  0  0  0  0  0  0  0  0  0  0
  2 10  1  0  0  0
  2 22  1  0  0  0
  3 10  1  0  0  0
  3  4  1  0  0  0
  4  5  1  0  0  0
  5  6  1  0  0  0
  6  7  1  0  0  0
  6 10  1  0  0  0
  7  8  1  0  0  0
  8 11  1  0  0  0
  9 11  1  0  0  0
  9  6  1  0  0  0
 13 18  2  0  0  0
 14 19  2  0  0  0
 14 20  1  0  0  0
 16 17  1  0  0  0
 17 12  2  0  0  0
 23 24  2  0  0  0
 25 26  2  0  0  0
 26 28  1  0  0  0
 27 22  2  0  0  0
 11 12  1  0  0  0
 20 15  1  0  0  0
  2  1  2  0  0  0
 12 18  1  0  0  0
 13 19  1  0  0  0
 15 16  2  0  0  0
 17 14  1  0  0  0
 22 23  1  0  0  0
 24 25  1  0  0  0
 26 27  1  0  0  0
 28 29  3  0  0  0
 20 21  1  0  0  0
M  END
> <minimizedAffinity>
-6.09803

$$$$
CHEMBL3693611


 29 33  0  0  0  0  0  0  0  0999 V2000
   -0.5083   19.4682   -5.0445 O   0  0  0  0  0  0  0  0  0  0  0  0
   -1.3683   18.6722   -5.4363 C   0  0  0  0  0  0  0  0  0  0  0  0
   -0.3240   16.9972   -4.0684 C   0  0  0  0  0  0  0  0  0  0  0  0
   -0.7160   15.6323   -3.5563 C   0  0  0  0  0  0  0  0  0  0  0  0
   -1.2627   14.9576   -4.7996 C   0  0  0  0  0  0  0  0  0  0  0  0
   -1.9591   16.0903   -5.6073 C   0  0  0  0  0  0  0  0  0  0  0  0
   -1.6935   15.8589   -7.1030 C   0  0  0  0  0  0  0  0  0  0  0  0
   -2.9455   16.3240   -7.8305 C   0  0  0  0  0  0  0  0  0  0  0  0
   -3.4975   16.0039   -5.4920 C   0  0  0  0  0  0  0  0  0  0  0  0
   -1.3206   17.3324   -5.0753 N   0  0  0  0  0  0  0  0  0  0  0  0
   -3.9800   16.3581   -6.8219 N   0  0  0  0  0  0  0  0  0  0  0  0
   -5.3006   16.6477   -7.0528 C   0  0  0  0  0  0  0  0  0  0  0  0
   -6.8732   17.9380   -8.2161 C   0  0  0  0  0  0  0  0  0  0  0  0
   -7.6676   16.3493   -6.9034 C   0  0  0  0  0  0  0  0  0  0  0  0
   -7.9686   14.6141   -5.5222 C   0  0  0  0  0  0  0  0  0  0  0  0
   -6.6126   14.8471   -5.6121 C   0  0  0  0  0  0  0  0  0  0  0  0
   -6.4012   15.9456   -6.5024 C   0  0  0  0  0  0  0  0  0  0  0  0
   -5.5880   17.6510   -7.9281 N   0  0  0  0  0  0  0  0  0  0  0  0
   -7.9763   17.3449   -7.7421 N   0  0  0  0  0  0  0  0  0  0  0  0
   -8.5962   15.5377   -6.3132 N   0  0  0  0  0  0  0  0  0  0  0  0
   -9.5901   15.6212   -6.4702 H   0  0  0  0  0  0  0  0  0  0  0  0
   -2.4159   19.2801   -6.2754 C   0  0  0  0  0  0  0  0  0  0  0  0
   -2.0615   19.6302   -7.5880 C   0  0  0  0  0  0  0  0  0  0  0  0
   -2.8776   20.4737   -8.3421 C   0  0  0  0  0  0  0  0  0  0  0  0
   -4.0568   20.9705   -7.7890 C   0  0  0  0  0  0  0  0  0  0  0  0
   -4.4231   20.6229   -6.4824 C   0  0  0  0  0  0  0  0  0  0  0  0
   -3.5877   19.7980   -5.7148 C   0  0  0  0  0  0  0  0  0  0  0  0
   -5.6355   21.1550   -5.9281 C   0  0  0  0  0  0  0  0  0  0  0  0
   -5.9909   21.7322   -4.9864 N   0  0  0  0  0  0  0  0  0  0  0  0
  2 10  1  0  0  0
  2 22  1  0  0  0
  3 10  1  0  0  0
  3  4  1  0  0  0
  4  5  1  0  0  0
  5  6  1  0  0  0
  6  7  1  0  0  0
  6 10  1  0  0  0
  7  8  1  0  0  0
  8 11  1  0  0  0
  9 11  1  0  0  0
  9  6  1  0  0  0
 13 18  2  0  0  0
 14 19  2  0  0  0
 14 20  1  0  0  0
 16 17  1  0  0  0
 17 12  2  0  0  0
 23 24  2  0  0  0
 25 26  2  0  0  0
 25 28  1  0  0  0
 27 22  2  0  0  0
 11 12  1  0  0  0
 20 15  1  0  0  0
  2  1  2  0  0  0
 12 18  1  0  0  0
 13 19  1  0  0  0
 15 16  2  0  0  0
 17 14  1  0  0  0
 22 23  1  0  0  0
 24 25  1  0  0  0
 26 27  1  0  0  0
 28 29  3  0  0  0
 20 21  1  0  0  0
M  END
> <minimizedAffinity>
-8.25901

$$$$
CHEMBL3693611


 29 33  0  0  0  0  0  0  0  0999 V2000
   -0.7243   11.2291   -4.8229 O   0  0  0  0  0  0  0  0  0  0  0  0
   -0.7246   12.4570   -4.6855 C   0  0  0  0  0  0  0  0  0  0  0  0
    1.4732   12.2693   -3.7361 C   0  0  0  0  0  0  0  0  0  0  0  0
    2.5956   13.2311   -3.4293 C   0  0  0  0  0  0  0  0  0  0  0  0
    1.8739   14.3702   -2.7355 C   0  0  0  0  0  0  0  0  0  0  0  0
    0.4851   14.4589   -3.4311 C   0  0  0  0  0  0  0  0  0  0  0  0
   -0.5754   14.7808   -2.3668 C   0  0  0  0  0  0  0  0  0  0  0  0
   -1.6059   15.6647   -3.0522 C   0  0  0  0  0  0  0  0  0  0  0  0
    0.4115   15.6636   -4.3959 C   0  0  0  0  0  0  0  0  0  0  0  0
    0.3217   13.1053   -4.0430 N   0  0  0  0  0  0  0  0  0  0  0  0
   -0.9433   16.1773   -4.2298 N   0  0  0  0  0  0  0  0  0  0  0  0
   -1.4789   17.0861   -5.1063 C   0  0  0  0  0  0  0  0  0  0  0  0
   -1.1069   18.6765   -6.7866 C   0  0  0  0  0  0  0  0  0  0  0  0
   -3.2122   18.2217   -6.2980 C   0  0  0  0  0  0  0  0  0  0  0  0
   -5.1322   17.3926   -5.5008 C   0  0  0  0  0  0  0  0  0  0  0  0
   -4.0992   16.7896   -4.8149 C   0  0  0  0  0  0  0  0  0  0  0  0
   -2.8630   17.2986   -5.3216 C   0  0  0  0  0  0  0  0  0  0  0  0
   -0.6196   17.8048   -5.8813 N   0  0  0  0  0  0  0  0  0  0  0  0
   -2.3888   18.9559   -7.0548 N   0  0  0  0  0  0  0  0  0  0  0  0
   -4.5752   18.2621   -6.3988 N   0  0  0  0  0  0  0  0  0  0  0  0
   -5.0686   18.8449   -7.0593 H   0  0  0  0  0  0  0  0  0  0  0  0
   -1.8971   13.1297   -5.2717 C   0  0  0  0  0  0  0  0  0  0  0  0
   -3.1629   12.6924   -4.8502 C   0  0  0  0  0  0  0  0  0  0  0  0
   -4.3094   13.0486   -5.5608 C   0  0  0  0  0  0  0  0  0  0  0  0
   -4.1977   13.8483   -6.6971 C   0  0  0  0  0  0  0  0  0  0  0  0
   -2.9404   14.2953   -7.1231 C   0  0  0  0  0  0  0  0  0  0  0  0
   -1.7855   13.9130   -6.4248 C   0  0  0  0  0  0  0  0  0  0  0  0
   -2.8468   15.1081   -8.3024 C   0  0  0  0  0  0  0  0  0  0  0  0
   -1.8378   15.6206   -8.5588 N   0  0  0  0  0  0  0  0  0  0  0  0
  2 10  1  0  0  0
  2 22  1  0  0  0
  3 10  1  0  0  0
  3  4  1  0  0  0
  4  5  1  0  0  0
  5  6  1  0  0  0
  6  7  1  0  0  0
  6 10  1  0  0  0
  7  8  1  0  0  0
  8 11  1  0  0  0
  9 11  1  0  0  0
  9  6  1  0  0  0
 13 18  2  0  0  0
 14 19  2  0  0  0
 14 20  1  0  0  0
 16 17  1  0  0  0
 17 12  2  0  0  0
 23 24  2  0  0  0
 25 26  2  0  0  0
 25 28  1  0  0  0
 27 22  2  0  0  0
 11 12  1  0  0  0
 20 15  1  0  0  0
  2  1  2  0  0  0
 12 18  1  0  0  0
 13 19  1  0  0  0
 15 16  2  0  0  0
 17 14  1  0  0  0
 22 23  1  0  0  0
 24 25  1  0  0  0
 26 27  1  0  0  0
 28 29  3  0  0  0
 20 21  1  0  0  0
M  END
> <minimizedAffinity>
-8.22537

$$$$
CHEMBL3693611


 29 33  0  0  0  0  0  0  0  0999 V2000
   -5.7909   17.6442   -7.9176 O   0  0  0  0  0  0  0  0  0  0  0  0
   -4.7316   17.6938   -7.2834 C   0  0  0  0  0  0  0  0  0  0  0  0
   -5.2690   19.9660   -6.7222 C   0  0  0  0  0  0  0  0  0  0  0  0
   -4.7649   20.9707   -5.7145 C   0  0  0  0  0  0  0  0  0  0  0  0
   -3.2596   20.8612   -5.8638 C   0  0  0  0  0  0  0  0  0  0  0  0
   -2.9876   19.3623   -6.1794 C   0  0  0  0  0  0  0  0  0  0  0  0
   -1.8535   19.2780   -7.2127 C   0  0  0  0  0  0  0  0  0  0  0  0
   -1.0636   18.0242   -6.8706 C   0  0  0  0  0  0  0  0  0  0  0  0
   -2.4174   18.6197   -4.9502 C   0  0  0  0  0  0  0  0  0  0  0  0
   -4.3024   18.8777   -6.6988 N   0  0  0  0  0  0  0  0  0  0  0  0
   -1.4239   17.7088   -5.5071 N   0  0  0  0  0  0  0  0  0  0  0  0
   -0.8832   16.6930   -4.7608 C   0  0  0  0  0  0  0  0  0  0  0  0
   -0.9775   14.4436   -4.1110 C   0  0  0  0  0  0  0  0  0  0  0  0
    0.7311   15.6240   -3.3590 C   0  0  0  0  0  0  0  0  0  0  0  0
    2.2693   17.1874   -2.9134 C   0  0  0  0  0  0  0  0  0  0  0  0
    1.2943   17.7704   -3.6947 C   0  0  0  0  0  0  0  0  0  0  0  0
    0.3088   16.7807   -4.0003 C   0  0  0  0  0  0  0  0  0  0  0  0
   -1.5017   15.4798   -4.7954 N   0  0  0  0  0  0  0  0  0  0  0  0
    0.1301   14.4287   -3.3584 N   0  0  0  0  0  0  0  0  0  0  0  0
    1.9108   15.8814   -2.7175 N   0  0  0  0  0  0  0  0  0  0  0  0
    2.4264   15.1860   -2.1979 H   0  0  0  0  0  0  0  0  0  0  0  0
   -4.0159   16.4083   -7.2023 C   0  0  0  0  0  0  0  0  0  0  0  0
   -2.9947   16.1842   -8.1393 C   0  0  0  0  0  0  0  0  0  0  0  0
   -2.4795   14.9024   -8.3341 C   0  0  0  0  0  0  0  0  0  0  0  0
   -2.9804   13.8357   -7.5896 C   0  0  0  0  0  0  0  0  0  0  0  0
   -3.9950   14.0490   -6.6476 C   0  0  0  0  0  0  0  0  0  0  0  0
   -4.5325   15.3328   -6.4730 C   0  0  0  0  0  0  0  0  0  0  0  0
   -4.5046   12.9346   -5.9001 C   0  0  0  0  0  0  0  0  0  0  0  0
   -5.4276   12.2770   -5.6510 N   0  0  0  0  0  0  0  0  0  0  0  0
  2 10  1  0  0  0
  2 22  1  0  0  0
  3 10  1  0  0  0
  3  4  1  0  0  0
  4  5  1  0  0  0
  5  6  1  0  0  0
  6  7  1  0  0  0
  6 10  1  0  0  0
  7  8  1  0  0  0
  8 11  1  0  0  0
  9 11  1  0  0  0
  9  6  1  0  0  0
 13 18  2  0  0  0
 14 19  2  0  0  0
 14 20  1  0  0  0
 16 17  1  0  0  0
 17 12  2  0  0  0
 23 24  2  0  0  0
 25 26  2  0  0  0
 25 28  1  0  0  0
 27 22  2  0  0  0
 11 12  1  0  0  0
 20 15  1  0  0  0
  2  1  2  0  0  0
 12 18  1  0  0  0
 13 19  1  0  0  0
 15 16  2  0  0  0
 17 14  1  0  0  0
 22 23  1  0  0  0
 24 25  1  0  0  0
 26 27  1  0  0  0
 28 29  3  0  0  0
 20 21  1  0  0  0
M  END
> <minimizedAffinity>
-8.19161

$$$$
CHEMBL3693611


 29 33  0  0  0  0  0  0  0  0999 V2000
   -0.5835   22.0521   -5.6014 O   0  0  0  0  0  0  0  0  0  0  0  0
   -0.9829   20.8829   -5.6166 C   0  0  0  0  0  0  0  0  0  0  0  0
    0.8562   20.3222   -4.1777 C   0  0  0  0  0  0  0  0  0  0  0  0
    1.2189   19.1411   -3.3103 C   0  0  0  0  0  0  0  0  0  0  0  0
    0.9590   17.9637   -4.2301 C   0  0  0  0  0  0  0  0  0  0  0  0
   -0.2658   18.3815   -5.0936 C   0  0  0  0  0  0  0  0  0  0  0  0
   -0.0544   17.8645   -6.5251 C   0  0  0  0  0  0  0  0  0  0  0  0
   -1.4338   17.4944   -7.0478 C   0  0  0  0  0  0  0  0  0  0  0  0
   -1.5543   17.6639   -4.6328 C   0  0  0  0  0  0  0  0  0  0  0  0
   -0.2625   19.8727   -4.9936 N   0  0  0  0  0  0  0  0  0  0  0  0
   -2.2628   17.3625   -5.8714 N   0  0  0  0  0  0  0  0  0  0  0  0
   -3.5735   16.9586   -5.8686 C   0  0  0  0  0  0  0  0  0  0  0  0
   -5.8360   17.5689   -5.8697 C   0  0  0  0  0  0  0  0  0  0  0  0
   -5.3893   15.4104   -6.0093 C   0  0  0  0  0  0  0  0  0  0  0  0
   -4.4436   13.3898   -6.1891 C   0  0  0  0  0  0  0  0  0  0  0  0
   -3.4302   14.3170   -6.0693 C   0  0  0  0  0  0  0  0  0  0  0  0
   -4.0171   15.6167   -5.9667 C   0  0  0  0  0  0  0  0  0  0  0  0
   -4.5357   17.9220   -5.8297 N   0  0  0  0  0  0  0  0  0  0  0  0
   -6.3532   16.3362   -5.9494 N   0  0  0  0  0  0  0  0  0  0  0  0
   -5.6295   14.0717   -6.1497 N   0  0  0  0  0  0  0  0  0  0  0  0
   -6.5553   13.6763   -6.2270 H   0  0  0  0  0  0  0  0  0  0  0  0
   -2.2630   20.6914   -6.3206 C   0  0  0  0  0  0  0  0  0  0  0  0
   -2.2089   20.5282   -7.7140 C   0  0  0  0  0  0  0  0  0  0  0  0
   -3.3639   20.6462   -8.4875 C   0  0  0  0  0  0  0  0  0  0  0  0
   -4.5828   20.9253   -7.8714 C   0  0  0  0  0  0  0  0  0  0  0  0
   -4.6494   21.0841   -6.4812 C   0  0  0  0  0  0  0  0  0  0  0  0
   -3.4829   20.9938   -5.7074 C   0  0  0  0  0  0  0  0  0  0  0  0
   -5.9126   21.3827   -5.8685 C   0  0  0  0  0  0  0  0  0  0  0  0
   -6.0766   22.0241   -4.9155 N   0  0  0  0  0  0  0  0  0  0  0  0
  2 10  1  0  0  0
  2 22  1  0  0  0
  3 10  1  0  0  0
  3  4  1  0  0  0
  4  5  1  0  0  0
  5  6  1  0  0  0
  6  7  1  0  0  0
  6 10  1  0  0  0
  7  8  1  0  0  0
  8 11  1  0  0  0
  9 11  1  0  0  0
  9  6  1  0  0  0
 13 18  2  0  0  0
 14 19  2  0  0  0
 14 20  1  0  0  0
 16 17  1  0  0  0
 17 12  2  0  0  0
 23 24  2  0  0  0
 25 26  2  0  0  0
 25 28  1  0  0  0
 27 22  2  0  0  0
 11 12  1  0  0  0
 20 15  1  0  0  0
  2  1  2  0  0  0
 12 18  1  0  0  0
 13 19  1  0  0  0
 15 16  2  0  0  0
 17 14  1  0  0  0
 22 23  1  0  0  0
 24 25  1  0  0  0
 26 27  1  0  0  0
 28 29  3  0  0  0
 20 21  1  0  0  0
M  END
> <minimizedAffinity>
-7.83405

$$$$
CHEMBL3693611


 29 33  0  0  0  0  0  0  0  0999 V2000
   10.0030    8.0659    3.5566 O   0  0  0  0  0  0  0  0  0  0  0  0
   10.2029    9.0158    2.7921 C   0  0  0  0  0  0  0  0  0  0  0  0
   11.5474   10.0128    4.5141 C   0  0  0  0  0  0  0  0  0  0  0  0
   12.5522   11.1377    4.5751 C   0  0  0  0  0  0  0  0  0  0  0  0
   11.8510   12.2482    3.8168 C   0  0  0  0  0  0  0  0  0  0  0  0
   11.0421   11.5320    2.6974 C   0  0  0  0  0  0  0  0  0  0  0  0
    9.6947   12.2518    2.5306 C   0  0  0  0  0  0  0  0  0  0  0  0
    9.3561   12.1752    1.0499 C   0  0  0  0  0  0  0  0  0  0  0  0
   11.7173   11.6970    1.3175 C   0  0  0  0  0  0  0  0  0  0  0  0
   10.9101   10.1348    3.2110 N   0  0  0  0  0  0  0  0  0  0  0  0
   10.6057   11.8730    0.3899 N   0  0  0  0  0  0  0  0  0  0  0  0
   10.7837   11.7911   -0.9676 C   0  0  0  0  0  0  0  0  0  0  0  0
   10.1445   10.8050   -2.9949 C   0  0  0  0  0  0  0  0  0  0  0  0
   11.6434   12.4233   -3.1065 C   0  0  0  0  0  0  0  0  0  0  0  0
   13.0591   14.1110   -2.7104 C   0  0  0  0  0  0  0  0  0  0  0  0
   12.5622   13.6877   -1.4959 C   0  0  0  0  0  0  0  0  0  0  0  0
   11.6445   12.6171   -1.7318 C   0  0  0  0  0  0  0  0  0  0  0  0
   10.0317   10.8865   -1.6542 N   0  0  0  0  0  0  0  0  0  0  0  0
   10.9328   11.5275   -3.8011 N   0  0  0  0  0  0  0  0  0  0  0  0
   12.4907   13.3304   -3.6800 N   0  0  0  0  0  0  0  0  0  0  0  0
   12.6413   13.4008   -4.6759 H   0  0  0  0  0  0  0  0  0  0  0  0
    9.6498    8.8286    1.4393 C   0  0  0  0  0  0  0  0  0  0  0  0
    8.2618    8.9777    1.2892 C   0  0  0  0  0  0  0  0  0  0  0  0
    7.6207    8.5274    0.1348 C   0  0  0  0  0  0  0  0  0  0  0  0
    8.3649    7.9274   -0.8798 C   0  0  0  0  0  0  0  0  0  0  0  0
    9.7511    7.7791   -0.7432 C   0  0  0  0  0  0  0  0  0  0  0  0
   10.3908    8.2059    0.4300 C   0  0  0  0  0  0  0  0  0  0  0  0
   10.4966    7.1479   -1.7948 C   0  0  0  0  0  0  0  0  0  0  0  0
   11.4907    7.3992   -2.3379 N   0  0  0  0  0  0  0  0  0  0  0  0
  2 10  1  0  0  0
  2 22  1  0  0  0
  3 10  1  0  0  0
  3  4  1  0  0  0
  4  5  1  0  0  0
  5  6  1  0  0  0
  6  7  1  0  0  0
  6 10  1  0  0  0
  7  8  1  0  0  0
  8 11  1  0  0  0
  9 11  1  0  0  0
  9  6  1  0  0  0
 13 18  2  0  0  0
 14 19  2  0  0  0
 14 20  1  0  0  0
 16 17  1  0  0  0
 17 12  2  0  0  0
 23 24  2  0  0  0
 25 26  2  0  0  0
 25 28  1  0  0  0
 27 22  2  0  0  0
 11 12  1  0  0  0
 20 15  1  0  0  0
  2  1  2  0  0  0
 12 18  1  0  0  0
 13 19  1  0  0  0
 15 16  2  0  0  0
 17 14  1  0  0  0
 22 23  1  0  0  0
 24 25  1  0  0  0
 26 27  1  0  0  0
 28 29  3  0  0  0
 20 21  1  0  0  0
M  END
> <minimizedAffinity>
-7.21312

$$$$
CHEMBL3693611


 29 33  0  0  0  0  0  0  0  0999 V2000
    9.2984    8.7133   -3.4412 O   0  0  0  0  0  0  0  0  0  0  0  0
    9.7150    9.2852   -2.4283 C   0  0  0  0  0  0  0  0  0  0  0  0
   10.0795   11.2368   -3.7795 C   0  0  0  0  0  0  0  0  0  0  0  0
   10.3438   12.6976   -3.5058 C   0  0  0  0  0  0  0  0  0  0  0  0
   11.4272   12.6443   -2.4459 C   0  0  0  0  0  0  0  0  0  0  0  0
   11.0993   11.3883   -1.5883 C   0  0  0  0  0  0  0  0  0  0  0  0
   12.4183   10.6987   -1.2065 C   0  0  0  0  0  0  0  0  0  0  0  0
   12.2057   10.1228    0.1850 C   0  0  0  0  0  0  0  0  0  0  0  0
   10.4836   11.7784   -0.2260 C   0  0  0  0  0  0  0  0  0  0  0  0
   10.2409   10.5684   -2.4963 N   0  0  0  0  0  0  0  0  0  0  0  0
   11.0629   10.8291    0.7176 N   0  0  0  0  0  0  0  0  0  0  0  0
   10.5647   10.6841    1.9871 C   0  0  0  0  0  0  0  0  0  0  0  0
    9.5307    9.2931    3.5642 C   0  0  0  0  0  0  0  0  0  0  0  0
   10.1401   11.2996    4.2576 C   0  0  0  0  0  0  0  0  0  0  0  0
   10.9763   13.3629    4.4874 C   0  0  0  0  0  0  0  0  0  0  0  0
   11.1676   12.9773    3.1775 C   0  0  0  0  0  0  0  0  0  0  0  0
   10.6504   11.6542    3.0161 C   0  0  0  0  0  0  0  0  0  0  0  0
    9.9930    9.4916    2.3137 N   0  0  0  0  0  0  0  0  0  0  0  0
    9.5539   10.1458    4.5966 N   0  0  0  0  0  0  0  0  0  0  0  0
   10.3488   12.3309    5.1307 N   0  0  0  0  0  0  0  0  0  0  0  0
   10.0832   12.2998    6.1043 H   0  0  0  0  0  0  0  0  0  0  0  0
    9.5786    8.4970   -1.1908 C   0  0  0  0  0  0  0  0  0  0  0  0
   10.6092    7.5917   -0.8919 C   0  0  0  0  0  0  0  0  0  0  0  0
   10.4261    6.6022    0.0742 C   0  0  0  0  0  0  0  0  0  0  0  0
    9.2106    6.5135    0.7511 C   0  0  0  0  0  0  0  0  0  0  0  0
    8.1777    7.4154    0.4651 C   0  0  0  0  0  0  0  0  0  0  0  0
    8.3525    8.3918   -0.5267 C   0  0  0  0  0  0  0  0  0  0  0  0
    6.9302    7.2990    1.1654 C   0  0  0  0  0  0  0  0  0  0  0  0
    5.8483    7.0581    1.5088 N   0  0  0  0  0  0  0  0  0  0  0  0
  2 10  1  0  0  0
  2 22  1  0  0  0
  3 10  1  0  0  0
  3  4  1  0  0  0
  4  5  1  0  0  0
  5  6  1  0  0  0
  6  7  1  0  0  0
  6 10  1  0  0  0
  7  8  1  0  0  0
  8 11  1  0  0  0
  9 11  1  0  0  0
  9  6  1  0  0  0
 13 18  2  0  0  0
 14 19  2  0  0  0
 14 20  1  0  0  0
 16 17  1  0  0  0
 17 12  2  0  0  0
 23 24  2  0  0  0
 25 26  2  0  0  0
 25 28  1  0  0  0
 27 22  2  0  0  0
 11 12  1  0  0  0
 20 15  1  0  0  0
  2  1  2  0  0  0
 12 18  1  0  0  0
 13 19  1  0  0  0
 15 16  2  0  0  0
 17 14  1  0  0  0
 22 23  1  0  0  0
 24 25  1  0  0  0
 26 27  1  0  0  0
 28 29  3  0  0  0
 20 21  1  0  0  0
M  END
> <minimizedAffinity>
-7.05538

$$$$
CHEMBL3693611


 29 33  0  0  0  0  0  0  0  0999 V2000
    0.2507   12.7210   -4.3762 O   0  0  0  0  0  0  0  0  0  0  0  0
   -0.2939   13.8244   -4.4899 C   0  0  0  0  0  0  0  0  0  0  0  0
    1.7391   14.8191   -3.6869 C   0  0  0  0  0  0  0  0  0  0  0  0
    2.3154   16.2142   -3.6643 C   0  0  0  0  0  0  0  0  0  0  0  0
    1.1496   17.0449   -3.1635 C   0  0  0  0  0  0  0  0  0  0  0  0
   -0.1195   16.3697   -3.7583 C   0  0  0  0  0  0  0  0  0  0  0  0
   -1.2379   16.4174   -2.7057 C   0  0  0  0  0  0  0  0  0  0  0  0
   -2.5362   16.5958   -3.4775 C   0  0  0  0  0  0  0  0  0  0  0  0
   -0.6939   17.1852   -4.9384 C   0  0  0  0  0  0  0  0  0  0  0  0
    0.3445   14.9838   -4.0705 N   0  0  0  0  0  0  0  0  0  0  0  0
   -2.1399   17.0808   -4.7799 N   0  0  0  0  0  0  0  0  0  0  0  0
   -3.0005   17.4554   -5.7800 C   0  0  0  0  0  0  0  0  0  0  0  0
   -5.0501   17.1133   -6.8631 C   0  0  0  0  0  0  0  0  0  0  0  0
   -3.8315   18.8189   -7.5588 C   0  0  0  0  0  0  0  0  0  0  0  0
   -2.2956   20.4193   -7.8571 C   0  0  0  0  0  0  0  0  0  0  0  0
   -1.8408   19.5836   -6.8592 C   0  0  0  0  0  0  0  0  0  0  0  0
   -2.8176   18.5615   -6.6461 C   0  0  0  0  0  0  0  0  0  0  0  0
   -4.1572   16.7500   -5.9210 N   0  0  0  0  0  0  0  0  0  0  0  0
   -4.9642   18.1284   -7.7323 N   0  0  0  0  0  0  0  0  0  0  0  0
   -3.5078   19.9392   -8.2727 N   0  0  0  0  0  0  0  0  0  0  0  0
   -4.1031   20.3389   -8.9836 H   0  0  0  0  0  0  0  0  0  0  0  0
   -1.6288   13.7774   -5.1118 C   0  0  0  0  0  0  0  0  0  0  0  0
   -2.5683   12.9013   -4.5452 C   0  0  0  0  0  0  0  0  0  0  0  0
   -3.7332   12.5669   -5.2361 C   0  0  0  0  0  0  0  0  0  0  0  0
   -3.9682   13.1098   -6.4983 C   0  0  0  0  0  0  0  0  0  0  0  0
   -3.0405   13.9898   -7.0705 C   0  0  0  0  0  0  0  0  0  0  0  0
   -1.8559   14.3029   -6.3877 C   0  0  0  0  0  0  0  0  0  0  0  0
   -3.2965   14.5282   -8.3762 C   0  0  0  0  0  0  0  0  0  0  0  0
   -2.5414   15.2891   -8.8202 N   0  0  0  0  0  0  0  0  0  0  0  0
  2 10  1  0  0  0
  2 22  1  0  0  0
  3 10  1  0  0  0
  3  4  1  0  0  0
  4  5  1  0  0  0
  5  6  1  0  0  0
  6  7  1  0  0  0
  6 10  1  0  0  0
  7  8  1  0  0  0
  8 11  1  0  0  0
  9 11  1  0  0  0
  9  6  1  0  0  0
 13 18  2  0  0  0
 14 19  2  0  0  0
 14 20  1  0  0  0
 16 17  1  0  0  0
 17 12  2  0  0  0
 23 24  2  0  0  0
 25 26  2  0  0  0
 25 28  1  0  0  0
 27 22  2  0  0  0
 11 12  1  0  0  0
 20 15  1  0  0  0
  2  1  2  0  0  0
 12 18  1  0  0  0
 13 19  1  0  0  0
 15 16  2  0  0  0
 17 14  1  0  0  0
 22 23  1  0  0  0
 24 25  1  0  0  0
 26 27  1  0  0  0
 28 29  3  0  0  0
 20 21  1  0  0  0
M  END
> <minimizedAffinity>
-6.85095

$$$$
CHEMBL3693611


 29 33  0  0  0  0  0  0  0  0999 V2000
    2.1669   23.9667   -0.6617 O   0  0  0  0  0  0  0  0  0  0  0  0
    1.9742   23.2059   -1.6160 C   0  0  0  0  0  0  0  0  0  0  0  0
    3.3804   21.6006   -0.5147 C   0  0  0  0  0  0  0  0  0  0  0  0
    3.6535   20.1245   -0.6744 C   0  0  0  0  0  0  0  0  0  0  0  0
    3.8561   19.9863   -2.1711 C   0  0  0  0  0  0  0  0  0  0  0  0
    2.8852   21.0189   -2.8126 C   0  0  0  0  0  0  0  0  0  0  0  0
    3.5797   21.6543   -4.0271 C   0  0  0  0  0  0  0  0  0  0  0  0
    2.4854   21.9127   -5.0512 C   0  0  0  0  0  0  0  0  0  0  0  0
    1.6452   20.3270   -3.4217 C   0  0  0  0  0  0  0  0  0  0  0  0
    2.6296   21.9848   -1.7012 N   0  0  0  0  0  0  0  0  0  0  0  0
    1.3816   21.0718   -4.6476 N   0  0  0  0  0  0  0  0  0  0  0  0
    0.2049   20.9260   -5.3371 C   0  0  0  0  0  0  0  0  0  0  0  0
   -1.6183   21.9576   -6.3873 C   0  0  0  0  0  0  0  0  0  0  0  0
   -1.5067   19.7562   -6.5269 C   0  0  0  0  0  0  0  0  0  0  0  0
   -0.9299   17.5954   -6.4396 C   0  0  0  0  0  0  0  0  0  0  0  0
    0.0144   18.3095   -5.7329 C   0  0  0  0  0  0  0  0  0  0  0  0
   -0.3318   19.6955   -5.7898 C   0  0  0  0  0  0  0  0  0  0  0  0
   -0.4802   22.0548   -5.6716 N   0  0  0  0  0  0  0  0  0  0  0  0
   -2.2098   20.8481   -6.8483 N   0  0  0  0  0  0  0  0  0  0  0  0
   -1.8491   18.4906   -6.9153 N   0  0  0  0  0  0  0  0  0  0  0  0
   -2.6573   18.2809   -7.4829 H   0  0  0  0  0  0  0  0  0  0  0  0
    0.9987   23.7070   -2.6001 C   0  0  0  0  0  0  0  0  0  0  0  0
    1.4168   24.7504   -3.4413 C   0  0  0  0  0  0  0  0  0  0  0  0
    0.4864   25.4830   -4.1789 C   0  0  0  0  0  0  0  0  0  0  0  0
   -0.8695   25.1741   -4.0826 C   0  0  0  0  0  0  0  0  0  0  0  0
   -1.2971   24.1311   -3.2511 C   0  0  0  0  0  0  0  0  0  0  0  0
   -0.3640   23.4140   -2.4878 C   0  0  0  0  0  0  0  0  0  0  0  0
   -2.6990   23.8375   -3.1576 C   0  0  0  0  0  0  0  0  0  0  0  0
   -3.6414   23.1870   -3.3451 N   0  0  0  0  0  0  0  0  0  0  0  0
  2 10  1  0  0  0
  2 22  1  0  0  0
  3 10  1  0  0  0
  3  4  1  0  0  0
  4  5  1  0  0  0
  5  6  1  0  0  0
  6  7  1  0  0  0
  6 10  1  0  0  0
  7  8  1  0  0  0
  8 11  1  0  0  0
  9 11  1  0  0  0
  9  6  1  0  0  0
 13 18  2  0  0  0
 14 19  2  0  0  0
 14 20  1  0  0  0
 16 17  1  0  0  0
 17 12  2  0  0  0
 23 24  2  0  0  0
 25 26  2  0  0  0
 25 28  1  0  0  0
 27 22  2  0  0  0
 11 12  1  0  0  0
 20 15  1  0  0  0
  2  1  2  0  0  0
 12 18  1  0  0  0
 13 19  1  0  0  0
 15 16  2  0  0  0
 17 14  1  0  0  0
 22 23  1  0  0  0
 24 25  1  0  0  0
 26 27  1  0  0  0
 28 29  3  0  0  0
 20 21  1  0  0  0
M  END
> <minimizedAffinity>
-6.46549

$$$$
CHEMBL3693611


 29 33  0  0  0  0  0  0  0  0999 V2000
   -5.6964   19.0023   -8.5143 O   0  0  0  0  0  0  0  0  0  0  0  0
   -5.5318   18.0181   -7.7858 C   0  0  0  0  0  0  0  0  0  0  0  0
   -7.8332   17.4505   -8.1708 C   0  0  0  0  0  0  0  0  0  0  0  0
   -8.6863   16.2235   -7.9573 C   0  0  0  0  0  0  0  0  0  0  0  0
   -8.3256   15.8126   -6.5427 C   0  0  0  0  0  0  0  0  0  0  0  0
   -6.8191   16.1674   -6.3849 C   0  0  0  0  0  0  0  0  0  0  0  0
   -6.5896   16.7066   -4.9645 C   0  0  0  0  0  0  0  0  0  0  0  0
   -5.2033   16.2354   -4.5534 C   0  0  0  0  0  0  0  0  0  0  0  0
   -5.9312   14.9042   -6.4438 C   0  0  0  0  0  0  0  0  0  0  0  0
   -6.5944   17.1891   -7.4523 N   0  0  0  0  0  0  0  0  0  0  0  0
   -4.8900   15.1479   -5.4520 N   0  0  0  0  0  0  0  0  0  0  0  0
   -3.7616   14.3708   -5.3903 C   0  0  0  0  0  0  0  0  0  0  0  0
   -2.6904   12.3787   -6.0028 C   0  0  0  0  0  0  0  0  0  0  0  0
   -1.4835   13.8522   -4.8847 C   0  0  0  0  0  0  0  0  0  0  0  0
   -0.6821   15.6467   -3.8138 C   0  0  0  0  0  0  0  0  0  0  0  0
   -2.0102   15.8864   -4.0962 C   0  0  0  0  0  0  0  0  0  0  0  0
   -2.5352   14.7539   -4.7932 C   0  0  0  0  0  0  0  0  0  0  0  0
   -3.7927   13.1544   -6.0026 N   0  0  0  0  0  0  0  0  0  0  0  0
   -1.4956   12.6440   -5.4592 N   0  0  0  0  0  0  0  0  0  0  0  0
   -0.3779   14.4040   -4.2993 N   0  0  0  0  0  0  0  0  0  0  0  0
    0.5207   13.9451   -4.2613 H   0  0  0  0  0  0  0  0  0  0  0  0
   -4.1396   17.8185   -7.3463 C   0  0  0  0  0  0  0  0  0  0  0  0
   -3.5107   18.8966   -6.7035 C   0  0  0  0  0  0  0  0  0  0  0  0
   -2.1264   18.9097   -6.5305 C   0  0  0  0  0  0  0  0  0  0  0  0
   -1.3615   17.8417   -6.9967 C   0  0  0  0  0  0  0  0  0  0  0  0
   -1.9792   16.7580   -7.6340 C   0  0  0  0  0  0  0  0  0  0  0  0
   -3.3677   16.7590   -7.8333 C   0  0  0  0  0  0  0  0  0  0  0  0
   -1.1716   15.6742   -8.1170 C   0  0  0  0  0  0  0  0  0  0  0  0
   -1.6970   14.7292   -8.5380 N   0  0  0  0  0  0  0  0  0  0  0  0
  2 10  1  0  0  0
  2 22  1  0  0  0
  3 10  1  0  0  0
  3  4  1  0  0  0
  4  5  1  0  0  0
  5  6  1  0  0  0
  6  7  1  0  0  0
  6 10  1  0  0  0
  7  8  1  0  0  0
  8 11  1  0  0  0
  9 11  1  0  0  0
  9  6  1  0  0  0
 13 18  2  0  0  0
 14 19  2  0  0  0
 14 20  1  0  0  0
 16 17  1  0  0  0
 17 12  2  0  0  0
 23 24  2  0  0  0
 25 26  2  0  0  0
 25 28  1  0  0  0
 27 22  2  0  0  0
 11 12  1  0  0  0
 20 15  1  0  0  0
  2  1  2  0  0  0
 12 18  1  0  0  0
 13 19  1  0  0  0
 15 16  2  0  0  0
 17 14  1  0  0  0
 22 23  1  0  0  0
 24 25  1  0  0  0
 26 27  1  0  0  0
 28 29  3  0  0  0
 20 21  1  0  0  0
M  END
> <minimizedAffinity>
-6.32309

$$$$
CHEMBL4280010


 27 31  0  0  0  0  0  0  0  0999 V2000
   -3.7191   16.4139   -5.4539 C   0  0  0  0  0  0  0  0  0  0  0  0
   -2.3628   16.4032   -4.7253 C   0  0  0  0  0  0  0  0  0  0  0  0
   -2.4205   18.4249   -6.0487 C   0  0  0  0  0  0  0  0  0  0  0  0
   -3.7602   17.7459   -6.1808 C   0  0  0  0  0  0  0  0  0  0  0  0
   -5.0249   18.5894   -6.1150 C   0  0  0  0  0  0  0  0  0  0  0  0
   -4.6125   17.9827   -7.4187 C   0  0  0  0  0  0  0  0  0  0  0  0
   -0.3153   17.9107   -4.9138 C   0  0  0  0  0  0  0  0  0  0  0  0
   -1.6147   17.5589   -5.2119 N   0  0  0  0  0  0  0  0  0  0  0  0
    0.1850   18.9848   -5.2385 O   0  0  0  0  0  0  0  0  0  0  0  0
    0.5185   16.9694   -4.1507 C   0  0  0  0  0  0  0  0  0  0  0  0
    1.5681   17.4623   -3.3909 C   0  0  0  0  0  0  0  0  0  0  0  0
    2.1961   15.3416   -2.7436 C   0  0  0  0  0  0  0  0  0  0  0  0
    1.1939   14.7566   -3.5045 C   0  0  0  0  0  0  0  0  0  0  0  0
    0.3434   15.5881   -4.2286 C   0  0  0  0  0  0  0  0  0  0  0  0
    2.4044   16.6756   -2.6683 N   0  0  0  0  0  0  0  0  0  0  0  0
   -2.9598   14.9487   -7.3281 C   0  0  0  0  0  0  0  0  0  0  0  0
   -3.9637   15.2464   -6.3234 N   0  0  0  0  0  0  0  0  0  0  0  0
   -5.0466   14.3964   -6.1288 C   0  0  0  0  0  0  0  0  0  0  0  0
   -7.3840   14.1856   -5.9017 C   0  0  0  0  0  0  0  0  0  0  0  0
   -6.2074   12.3277   -5.7572 C   0  0  0  0  0  0  0  0  0  0  0  0
   -4.9953   12.9851   -5.9472 C   0  0  0  0  0  0  0  0  0  0  0  0
   -4.0014   11.9552   -5.9011 C   0  0  0  0  0  0  0  0  0  0  0  0
   -4.6281   10.7455   -5.6859 C   0  0  0  0  0  0  0  0  0  0  0  0
   -6.2950   14.9452   -6.1097 N   0  0  0  0  0  0  0  0  0  0  0  0
   -7.4336   12.8633   -5.7223 N   0  0  0  0  0  0  0  0  0  0  0  0
   -5.9700   10.9907   -5.5994 N   0  0  0  0  0  0  0  0  0  0  0  0
   -6.6985   10.3091   -5.4436 H   0  0  0  0  0  0  0  0  0  0  0  0
 16 17  1  0  0  0
  1 17  1  0  0  0
  1  2  1  0  0  0
  2  8  1  0  0  0
  3  8  1  0  0  0
  3  4  1  0  0  0
  4  5  1  0  0  0
  4  1  1  0  0  0
  5  6  1  0  0  0
  6  4  1  0  0  0
  7 10  1  0  0  0
 11 15  2  0  0  0
 12 13  2  0  0  0
 14 10  2  0  0  0
 19 24  2  0  0  0
 20 25  2  0  0  0
 21 22  1  0  0  0
 21 18  2  0  0  0
 23 26  1  0  0  0
 17 18  1  0  0  0
  8  7  1  0  0  0
 26 20  1  0  0  0
  7  9  2  0  0  0
 10 11  1  0  0  0
 12 15  1  0  0  0
 13 14  1  0  0  0
 18 24  1  0  0  0
 19 25  1  0  0  0
 20 21  1  0  0  0
 22 23  2  0  0  0
 26 27  1  0  0  0
M  END
> <minimizedAffinity>
-9.58511

$$$$
CHEMBL4280010


 27 31  0  0  0  0  0  0  0  0999 V2000
   -3.4155   17.9473   -5.6585 C   0  0  0  0  0  0  0  0  0  0  0  0
   -2.2020   17.4022   -4.8833 C   0  0  0  0  0  0  0  0  0  0  0  0
   -1.4514   19.3922   -6.0316 C   0  0  0  0  0  0  0  0  0  0  0  0
   -2.9333   19.2499   -6.2707 C   0  0  0  0  0  0  0  0  0  0  0  0
   -3.8174   20.4851   -6.1807 C   0  0  0  0  0  0  0  0  0  0  0  0
   -3.5632   19.8581   -7.5150 C   0  0  0  0  0  0  0  0  0  0  0  0
    0.2551   18.0825   -4.8666 C   0  0  0  0  0  0  0  0  0  0  0  0
   -1.0622   18.2414   -5.2419 N   0  0  0  0  0  0  0  0  0  0  0  0
    1.1243   18.9242   -5.0801 O   0  0  0  0  0  0  0  0  0  0  0  0
    0.6485   16.8564   -4.1557 C   0  0  0  0  0  0  0  0  0  0  0  0
    1.8348   16.8449   -3.4383 C   0  0  0  0  0  0  0  0  0  0  0  0
    1.5462   14.6356   -2.8496 C   0  0  0  0  0  0  0  0  0  0  0  0
    0.3647   14.5438   -3.5715 C   0  0  0  0  0  0  0  0  0  0  0  0
   -0.0882   15.6757   -4.2443 C   0  0  0  0  0  0  0  0  0  0  0  0
    2.2933   15.7596   -2.7657 N   0  0  0  0  0  0  0  0  0  0  0  0
   -3.0891   16.3562   -7.5552 C   0  0  0  0  0  0  0  0  0  0  0  0
   -4.0015   17.0056   -6.6324 N   0  0  0  0  0  0  0  0  0  0  0  0
   -5.3486   16.6624   -6.6073 C   0  0  0  0  0  0  0  0  0  0  0  0
   -7.0293   15.3020   -5.6671 C   0  0  0  0  0  0  0  0  0  0  0  0
   -7.6667   16.7187   -7.2302 C   0  0  0  0  0  0  0  0  0  0  0  0
   -6.3812   17.2200   -7.4136 C   0  0  0  0  0  0  0  0  0  0  0  0
   -6.5122   18.2190   -8.4312 C   0  0  0  0  0  0  0  0  0  0  0  0
   -7.8339   18.2824   -8.8207 C   0  0  0  0  0  0  0  0  0  0  0  0
   -5.7469   15.6997   -5.7271 N   0  0  0  0  0  0  0  0  0  0  0  0
   -8.0603   15.7636   -6.3790 N   0  0  0  0  0  0  0  0  0  0  0  0
   -8.5221   17.3618   -8.0809 N   0  0  0  0  0  0  0  0  0  0  0  0
   -9.5110   17.1647   -8.1324 H   0  0  0  0  0  0  0  0  0  0  0  0
 16 17  1  0  0  0
  1 17  1  0  0  0
  1  2  1  0  0  0
  2  8  1  0  0  0
  3  8  1  0  0  0
  3  4  1  0  0  0
  4  5  1  0  0  0
  4  1  1  0  0  0
  5  6  1  0  0  0
  6  4  1  0  0  0
  7 10  1  0  0  0
 11 15  2  0  0  0
 12 13  2  0  0  0
 14 10  2  0  0  0
 19 24  2  0  0  0
 20 25  2  0  0  0
 21 22  1  0  0  0
 21 18  2  0  0  0
 23 26  1  0  0  0
 17 18  1  0  0  0
  8  7  1  0  0  0
 26 20  1  0  0  0
  7  9  2  0  0  0
 10 11  1  0  0  0
 12 15  1  0  0  0
 13 14  1  0  0  0
 18 24  1  0  0  0
 19 25  1  0  0  0
 20 21  1  0  0  0
 22 23  2  0  0  0
 26 27  1  0  0  0
M  END
> <minimizedAffinity>
-8.99684

$$$$
CHEMBL4280010


 27 31  0  0  0  0  0  0  0  0999 V2000
   -3.2235   16.6380   -6.7875 C   0  0  0  0  0  0  0  0  0  0  0  0
   -4.5056   16.8940   -7.6007 C   0  0  0  0  0  0  0  0  0  0  0  0
   -3.5410   19.0599   -7.1311 C   0  0  0  0  0  0  0  0  0  0  0  0
   -2.5940   18.0080   -6.6114 C   0  0  0  0  0  0  0  0  0  0  0  0
   -1.1008   18.1757   -6.8512 C   0  0  0  0  0  0  0  0  0  0  0  0
   -1.6464   18.3382   -5.4678 C   0  0  0  0  0  0  0  0  0  0  0  0
   -5.7360   19.0421   -8.2111 C   0  0  0  0  0  0  0  0  0  0  0  0
   -4.6809   18.3422   -7.6650 N   0  0  0  0  0  0  0  0  0  0  0  0
   -5.7293   20.2607   -8.3673 O   0  0  0  0  0  0  0  0  0  0  0  0
   -6.9278   18.3013   -8.6518 C   0  0  0  0  0  0  0  0  0  0  0  0
   -7.4523   17.3174   -7.8279 C   0  0  0  0  0  0  0  0  0  0  0  0
   -9.0868   16.7937   -9.3659 C   0  0  0  0  0  0  0  0  0  0  0  0
   -8.6095   17.7321  -10.2698 C   0  0  0  0  0  0  0  0  0  0  0  0
   -7.5026   18.4954   -9.9075 C   0  0  0  0  0  0  0  0  0  0  0  0
   -8.5353   16.5673   -8.1521 N   0  0  0  0  0  0  0  0  0  0  0  0
   -4.3803   16.4622   -4.5814 C   0  0  0  0  0  0  0  0  0  0  0  0
   -3.4287   15.9034   -5.5237 N   0  0  0  0  0  0  0  0  0  0  0  0
   -2.8279   14.6734   -5.2801 C   0  0  0  0  0  0  0  0  0  0  0  0
   -2.9022   12.3368   -5.5871 C   0  0  0  0  0  0  0  0  0  0  0  0
   -1.2180   13.1231   -4.4030 C   0  0  0  0  0  0  0  0  0  0  0  0
   -1.6390   14.4436   -4.5312 C   0  0  0  0  0  0  0  0  0  0  0  0
   -0.6666   15.2159   -3.8180 C   0  0  0  0  0  0  0  0  0  0  0  0
    0.2795   14.3599   -3.2938 C   0  0  0  0  0  0  0  0  0  0  0  0
   -3.4156   13.5598   -5.8040 N   0  0  0  0  0  0  0  0  0  0  0  0
   -1.7991   12.0255   -4.9021 N   0  0  0  0  0  0  0  0  0  0  0  0
   -0.0721   13.0903   -3.6581 N   0  0  0  0  0  0  0  0  0  0  0  0
    0.4195   12.2390   -3.4277 H   0  0  0  0  0  0  0  0  0  0  0  0
 16 17  1  0  0  0
  1 17  1  0  0  0
  1  2  1  0  0  0
  2  8  1  0  0  0
  3  8  1  0  0  0
  3  4  1  0  0  0
  4  5  1  0  0  0
  4  1  1  0  0  0
  5  6  1  0  0  0
  6  4  1  0  0  0
  7 10  1  0  0  0
 11 15  2  0  0  0
 12 13  2  0  0  0
 14 10  2  0  0  0
 19 24  2  0  0  0
 20 25  2  0  0  0
 21 22  1  0  0  0
 21 18  2  0  0  0
 23 26  1  0  0  0
 17 18  1  0  0  0
  8  7  1  0  0  0
 26 20  1  0  0  0
  7  9  2  0  0  0
 10 11  1  0  0  0
 12 15  1  0  0  0
 13 14  1  0  0  0
 18 24  1  0  0  0
 19 25  1  0  0  0
 20 21  1  0  0  0
 22 23  2  0  0  0
 26 27  1  0  0  0
M  END
> <minimizedAffinity>
-8.91790

$$$$
CHEMBL4280010


 27 31  0  0  0  0  0  0  0  0999 V2000
   -1.1580   16.8013   -5.5140 C   0  0  0  0  0  0  0  0  0  0  0  0
   -1.8617   17.9579   -6.2472 C   0  0  0  0  0  0  0  0  0  0  0  0
   -0.1990   18.9616   -4.8085 C   0  0  0  0  0  0  0  0  0  0  0  0
   -0.0534   17.4640   -4.7109 C   0  0  0  0  0  0  0  0  0  0  0  0
    1.3412   16.8556   -4.7228 C   0  0  0  0  0  0  0  0  0  0  0  0
    0.5424   16.8394   -3.4580 C   0  0  0  0  0  0  0  0  0  0  0  0
   -1.7092   20.4888   -5.9796 C   0  0  0  0  0  0  0  0  0  0  0  0
   -1.3189   19.1968   -5.6973 N   0  0  0  0  0  0  0  0  0  0  0  0
   -1.0930   21.4797   -5.5950 O   0  0  0  0  0  0  0  0  0  0  0  0
   -2.9113   20.7049   -6.7992 C   0  0  0  0  0  0  0  0  0  0  0  0
   -2.7666   20.9479   -8.1564 C   0  0  0  0  0  0  0  0  0  0  0  0
   -5.0409   21.1982   -8.4318 C   0  0  0  0  0  0  0  0  0  0  0  0
   -5.2787   21.0003   -7.0792 C   0  0  0  0  0  0  0  0  0  0  0  0
   -4.1902   20.7566   -6.2456 C   0  0  0  0  0  0  0  0  0  0  0  0
   -3.8102   21.1776   -8.9921 N   0  0  0  0  0  0  0  0  0  0  0  0
   -2.8614   16.5930   -3.6999 C   0  0  0  0  0  0  0  0  0  0  0  0
   -2.0515   15.9419   -4.7127 N   0  0  0  0  0  0  0  0  0  0  0  0
   -2.2029   14.5855   -4.9783 C   0  0  0  0  0  0  0  0  0  0  0  0
   -3.4993   12.8984   -5.9943 C   0  0  0  0  0  0  0  0  0  0  0  0
   -1.6869   12.2412   -4.9264 C   0  0  0  0  0  0  0  0  0  0  0  0
   -1.3383   13.5365   -4.5548 C   0  0  0  0  0  0  0  0  0  0  0  0
   -0.1236   13.3965   -3.8096 C   0  0  0  0  0  0  0  0  0  0  0  0
    0.2087   12.0589   -3.7534 C   0  0  0  0  0  0  0  0  0  0  0  0
   -3.2783   14.1955   -5.7209 N   0  0  0  0  0  0  0  0  0  0  0  0
   -2.7490   11.8515   -5.6417 N   0  0  0  0  0  0  0  0  0  0  0  0
   -0.7540   11.3701   -4.4367 N   0  0  0  0  0  0  0  0  0  0  0  0
   -0.7963   10.3709   -4.5757 H   0  0  0  0  0  0  0  0  0  0  0  0
 16 17  1  0  0  0
  1 17  1  0  0  0
  1  2  1  0  0  0
  2  8  1  0  0  0
  3  8  1  0  0  0
  3  4  1  0  0  0
  4  5  1  0  0  0
  4  1  1  0  0  0
  5  6  1  0  0  0
  6  4  1  0  0  0
  7 10  1  0  0  0
 11 15  2  0  0  0
 12 13  2  0  0  0
 14 10  2  0  0  0
 19 24  2  0  0  0
 20 25  2  0  0  0
 21 22  1  0  0  0
 21 18  2  0  0  0
 23 26  1  0  0  0
 17 18  1  0  0  0
  8  7  1  0  0  0
 26 20  1  0  0  0
  7  9  2  0  0  0
 10 11  1  0  0  0
 12 15  1  0  0  0
 13 14  1  0  0  0
 18 24  1  0  0  0
 19 25  1  0  0  0
 20 21  1  0  0  0
 22 23  2  0  0  0
 26 27  1  0  0  0
M  END
> <minimizedAffinity>
-8.81895

$$$$
CHEMBL4280010


 27 31  0  0  0  0  0  0  0  0999 V2000
   -3.4024   17.0854   -5.3216 C   0  0  0  0  0  0  0  0  0  0  0  0
   -3.2480   18.6164   -5.2680 C   0  0  0  0  0  0  0  0  0  0  0  0
   -5.1769   18.1643   -6.6524 C   0  0  0  0  0  0  0  0  0  0  0  0
   -4.6822   16.8502   -6.1032 C   0  0  0  0  0  0  0  0  0  0  0  0
   -5.6941   15.8391   -5.5845 C   0  0  0  0  0  0  0  0  0  0  0  0
   -4.9608   15.5589   -6.8580 C   0  0  0  0  0  0  0  0  0  0  0  0
   -4.4456   20.4943   -6.5088 C   0  0  0  0  0  0  0  0  0  0  0  0
   -4.2591   19.1727   -6.1626 N   0  0  0  0  0  0  0  0  0  0  0  0
   -5.4197   20.8958   -7.1409 O   0  0  0  0  0  0  0  0  0  0  0  0
   -3.4450   21.4871   -6.0884 C   0  0  0  0  0  0  0  0  0  0  0  0
   -2.2646   21.5997   -6.8067 C   0  0  0  0  0  0  0  0  0  0  0  0
   -1.4655   23.2280   -5.3851 C   0  0  0  0  0  0  0  0  0  0  0  0
   -2.5979   23.1591   -4.5861 C   0  0  0  0  0  0  0  0  0  0  0  0
   -3.6040   22.2644   -4.9416 C   0  0  0  0  0  0  0  0  0  0  0  0
   -1.2737   22.4698   -6.4883 N   0  0  0  0  0  0  0  0  0  0  0  0
   -1.7626   16.7467   -7.1742 C   0  0  0  0  0  0  0  0  0  0  0  0
   -2.2305   16.3637   -5.8551 N   0  0  0  0  0  0  0  0  0  0  0  0
   -1.5291   15.4337   -5.0959 C   0  0  0  0  0  0  0  0  0  0  0  0
    0.1805   15.0490   -3.5184 C   0  0  0  0  0  0  0  0  0  0  0  0
   -0.8987   13.2746   -4.2557 C   0  0  0  0  0  0  0  0  0  0  0  0
   -1.7243   14.0234   -5.0896 C   0  0  0  0  0  0  0  0  0  0  0  0
   -2.5793   13.0662   -5.7248 C   0  0  0  0  0  0  0  0  0  0  0  0
   -2.2477   11.8070   -5.2700 C   0  0  0  0  0  0  0  0  0  0  0  0
   -0.5529   15.8945   -4.2623 N   0  0  0  0  0  0  0  0  0  0  0  0
    0.0706   13.7201   -3.4474 N   0  0  0  0  0  0  0  0  0  0  0  0
   -1.2223   11.9520   -4.3779 N   0  0  0  0  0  0  0  0  0  0  0  0
   -0.7554   11.2141   -3.8710 H   0  0  0  0  0  0  0  0  0  0  0  0
 16 17  1  0  0  0
  1 17  1  0  0  0
  1  2  1  0  0  0
  2  8  1  0  0  0
  3  8  1  0  0  0
  3  4  1  0  0  0
  4  5  1  0  0  0
  4  1  1  0  0  0
  5  6  1  0  0  0
  6  4  1  0  0  0
  7 10  1  0  0  0
 11 15  2  0  0  0
 12 13  2  0  0  0
 14 10  2  0  0  0
 19 24  2  0  0  0
 20 25  2  0  0  0
 21 22  1  0  0  0
 21 18  2  0  0  0
 23 26  1  0  0  0
 17 18  1  0  0  0
  8  7  1  0  0  0
 26 20  1  0  0  0
  7  9  2  0  0  0
 10 11  1  0  0  0
 12 15  1  0  0  0
 13 14  1  0  0  0
 18 24  1  0  0  0
 19 25  1  0  0  0
 20 21  1  0  0  0
 22 23  2  0  0  0
 26 27  1  0  0  0
M  END
> <minimizedAffinity>
-8.72285

$$$$
CHEMBL4280010


 27 31  0  0  0  0  0  0  0  0999 V2000
   -5.0662   16.3108   -7.2073 C   0  0  0  0  0  0  0  0  0  0  0  0
   -6.0978   16.8798   -8.1986 C   0  0  0  0  0  0  0  0  0  0  0  0
   -4.8871   18.7692   -7.3007 C   0  0  0  0  0  0  0  0  0  0  0  0
   -4.2577   17.5129   -6.7540 C   0  0  0  0  0  0  0  0  0  0  0  0
   -2.7405   17.4104   -6.7006 C   0  0  0  0  0  0  0  0  0  0  0  0
   -3.5133   17.5521   -5.4276 C   0  0  0  0  0  0  0  0  0  0  0  0
   -6.7938   19.2699   -8.7493 C   0  0  0  0  0  0  0  0  0  0  0  0
   -6.0047   18.3345   -8.1140 N   0  0  0  0  0  0  0  0  0  0  0  0
   -6.5464   20.4733   -8.7503 O   0  0  0  0  0  0  0  0  0  0  0  0
   -7.9840   18.8145   -9.4838 C   0  0  0  0  0  0  0  0  0  0  0  0
   -7.8923   18.6047  -10.8512 C   0  0  0  0  0  0  0  0  0  0  0  0
  -10.1230   18.0432  -10.9917 C   0  0  0  0  0  0  0  0  0  0  0  0
  -10.3171   18.2634   -9.6355 C   0  0  0  0  0  0  0  0  0  0  0  0
   -9.2264   18.6647   -8.8684 C   0  0  0  0  0  0  0  0  0  0  0  0
   -8.9360   18.2037  -11.6195 N   0  0  0  0  0  0  0  0  0  0  0  0
   -6.5499   16.2073   -5.2015 C   0  0  0  0  0  0  0  0  0  0  0  0
   -5.6414   15.5210   -6.1010 N   0  0  0  0  0  0  0  0  0  0  0  0
   -5.4191   14.1540   -5.9779 C   0  0  0  0  0  0  0  0  0  0  0  0
   -6.3594   11.9933   -5.8963 C   0  0  0  0  0  0  0  0  0  0  0  0
   -4.1692   12.1243   -5.6892 C   0  0  0  0  0  0  0  0  0  0  0  0
   -4.1607   13.5118   -5.8008 C   0  0  0  0  0  0  0  0  0  0  0  0
   -2.7821   13.8855   -5.6989 C   0  0  0  0  0  0  0  0  0  0  0  0
   -2.0262   12.7444   -5.5291 C   0  0  0  0  0  0  0  0  0  0  0  0
   -6.4991   13.3230   -6.0329 N   0  0  0  0  0  0  0  0  0  0  0  0
   -5.2274   11.3055   -5.7272 N   0  0  0  0  0  0  0  0  0  0  0  0
   -2.8863   11.6820   -5.5241 N   0  0  0  0  0  0  0  0  0  0  0  0
   -2.6411   10.7084   -5.4170 H   0  0  0  0  0  0  0  0  0  0  0  0
 16 17  1  0  0  0
  1 17  1  0  0  0
  1  2  1  0  0  0
  2  8  1  0  0  0
  3  8  1  0  0  0
  3  4  1  0  0  0
  4  5  1  0  0  0
  4  1  1  0  0  0
  5  6  1  0  0  0
  6  4  1  0  0  0
  7 10  1  0  0  0
 11 15  2  0  0  0
 12 13  2  0  0  0
 14 10  2  0  0  0
 19 24  2  0  0  0
 20 25  2  0  0  0
 21 22  1  0  0  0
 21 18  2  0  0  0
 23 26  1  0  0  0
 17 18  1  0  0  0
  8  7  1  0  0  0
 26 20  1  0  0  0
  7  9  2  0  0  0
 10 11  1  0  0  0
 12 15  1  0  0  0
 13 14  1  0  0  0
 18 24  1  0  0  0
 19 25  1  0  0  0
 20 21  1  0  0  0
 22 23  2  0  0  0
 26 27  1  0  0  0
M  END
> <minimizedAffinity>
-8.72020

$$$$
CHEMBL4280010


 27 31  0  0  0  0  0  0  0  0999 V2000
   -0.6410   16.7703   -5.2462 C   0  0  0  0  0  0  0  0  0  0  0  0
   -1.3712   17.9110   -5.9785 C   0  0  0  0  0  0  0  0  0  0  0  0
    0.3132   18.9479   -4.5894 C   0  0  0  0  0  0  0  0  0  0  0  0
    0.4746   17.4531   -4.4760 C   0  0  0  0  0  0  0  0  0  0  0  0
    1.8742   16.8571   -4.5108 C   0  0  0  0  0  0  0  0  0  0  0  0
    1.1034   16.8500   -3.2287 C   0  0  0  0  0  0  0  0  0  0  0  0
   -1.2363   20.4464   -5.7463 C   0  0  0  0  0  0  0  0  0  0  0  0
   -0.8280   19.1617   -5.4563 N   0  0  0  0  0  0  0  0  0  0  0  0
   -0.6210   21.4476   -5.3879 O   0  0  0  0  0  0  0  0  0  0  0  0
   -2.4579   20.6412   -6.5420 C   0  0  0  0  0  0  0  0  0  0  0  0
   -2.3515   20.7755   -7.9178 C   0  0  0  0  0  0  0  0  0  0  0  0
   -4.6246   21.0826   -8.1403 C   0  0  0  0  0  0  0  0  0  0  0  0
   -4.8227   20.9962   -6.7696 C   0  0  0  0  0  0  0  0  0  0  0  0
   -3.7150   20.7789   -5.9542 C   0  0  0  0  0  0  0  0  0  0  0  0
   -3.4150   20.9771   -8.7356 N   0  0  0  0  0  0  0  0  0  0  0  0
   -2.5525   16.5721   -3.6517 C   0  0  0  0  0  0  0  0  0  0  0  0
   -1.5089   15.9133   -4.4148 N   0  0  0  0  0  0  0  0  0  0  0  0
   -1.4140   14.5263   -4.4366 C   0  0  0  0  0  0  0  0  0  0  0  0
   -0.1687   12.6160   -3.8371 C   0  0  0  0  0  0  0  0  0  0  0  0
   -2.0420   12.2650   -4.9436 C   0  0  0  0  0  0  0  0  0  0  0  0
   -2.3400   13.6220   -5.0299 C   0  0  0  0  0  0  0  0  0  0  0  0
   -3.5822   13.6865   -5.7393 C   0  0  0  0  0  0  0  0  0  0  0  0
   -3.9792   12.4034   -6.0530 C   0  0  0  0  0  0  0  0  0  0  0  0
   -0.3361   13.9495   -3.8321 N   0  0  0  0  0  0  0  0  0  0  0  0
   -0.9783   11.6947   -4.3650 N   0  0  0  0  0  0  0  0  0  0  0  0
   -3.0298   11.5510   -5.5626 N   0  0  0  0  0  0  0  0  0  0  0  0
   -3.0308   10.5436   -5.6315 H   0  0  0  0  0  0  0  0  0  0  0  0
 16 17  1  0  0  0
  1 17  1  0  0  0
  1  2  1  0  0  0
  2  8  1  0  0  0
  3  8  1  0  0  0
  3  4  1  0  0  0
  4  5  1  0  0  0
  4  1  1  0  0  0
  5  6  1  0  0  0
  6  4  1  0  0  0
  7 10  1  0  0  0
 11 15  2  0  0  0
 12 13  2  0  0  0
 14 10  2  0  0  0
 19 24  2  0  0  0
 20 25  2  0  0  0
 21 22  1  0  0  0
 21 18  2  0  0  0
 23 26  1  0  0  0
 17 18  1  0  0  0
  8  7  1  0  0  0
 26 20  1  0  0  0
  7  9  2  0  0  0
 10 11  1  0  0  0
 12 15  1  0  0  0
 13 14  1  0  0  0
 18 24  1  0  0  0
 19 25  1  0  0  0
 20 21  1  0  0  0
 22 23  2  0  0  0
 26 27  1  0  0  0
M  END
> <minimizedAffinity>
-8.68980

$$$$
CHEMBL4280010


 27 31  0  0  0  0  0  0  0  0999 V2000
   -3.4435   16.9604   -5.3183 C   0  0  0  0  0  0  0  0  0  0  0  0
   -3.2766   18.4902   -5.2702 C   0  0  0  0  0  0  0  0  0  0  0  0
   -5.2081   18.0490   -6.6545 C   0  0  0  0  0  0  0  0  0  0  0  0
   -4.7246   16.7329   -6.1001 C   0  0  0  0  0  0  0  0  0  0  0  0
   -5.7453   15.7320   -5.5785 C   0  0  0  0  0  0  0  0  0  0  0  0
   -5.0133   15.4411   -6.8504 C   0  0  0  0  0  0  0  0  0  0  0  0
   -4.4577   20.3734   -6.5188 C   0  0  0  0  0  0  0  0  0  0  0  0
   -4.2823   19.0516   -6.1676 N   0  0  0  0  0  0  0  0  0  0  0  0
   -5.4279   20.7806   -7.1531 O   0  0  0  0  0  0  0  0  0  0  0  0
   -3.4493   21.3594   -6.1011 C   0  0  0  0  0  0  0  0  0  0  0  0
   -2.2724   21.4677   -6.8259 C   0  0  0  0  0  0  0  0  0  0  0  0
   -1.4562   23.0873   -5.4041 C   0  0  0  0  0  0  0  0  0  0  0  0
   -2.5844   23.0222   -4.5988 C   0  0  0  0  0  0  0  0  0  0  0  0
   -3.5974   22.1341   -4.9511 C   0  0  0  0  0  0  0  0  0  0  0  0
   -1.2749   22.3315   -6.5107 N   0  0  0  0  0  0  0  0  0  0  0  0
   -1.7140   16.6971   -7.1003 C   0  0  0  0  0  0  0  0  0  0  0  0
   -2.2773   16.2270   -5.8483 N   0  0  0  0  0  0  0  0  0  0  0  0
   -1.6669   15.2000   -5.1370 C   0  0  0  0  0  0  0  0  0  0  0  0
   -1.7262   12.9354   -4.4833 C   0  0  0  0  0  0  0  0  0  0  0  0
   -0.0425   14.1375   -3.7238 C   0  0  0  0  0  0  0  0  0  0  0  0
   -0.4733   15.2945   -4.3666 C   0  0  0  0  0  0  0  0  0  0  0  0
    0.4967   16.2921   -4.0283 C   0  0  0  0  0  0  0  0  0  0  0  0
    1.4510   15.7218   -3.2118 C   0  0  0  0  0  0  0  0  0  0  0  0
   -2.2490   13.9670   -5.1678 N   0  0  0  0  0  0  0  0  0  0  0  0
   -0.6181   12.9292   -3.7383 N   0  0  0  0  0  0  0  0  0  0  0  0
    1.1066   14.4108   -3.0356 N   0  0  0  0  0  0  0  0  0  0  0  0
    1.6051   13.7251   -2.4871 H   0  0  0  0  0  0  0  0  0  0  0  0
 16 17  1  0  0  0
  1 17  1  0  0  0
  1  2  1  0  0  0
  2  8  1  0  0  0
  3  8  1  0  0  0
  3  4  1  0  0  0
  4  5  1  0  0  0
  4  1  1  0  0  0
  5  6  1  0  0  0
  6  4  1  0  0  0
  7 10  1  0  0  0
 11 15  2  0  0  0
 12 13  2  0  0  0
 14 10  2  0  0  0
 19 24  2  0  0  0
 20 25  2  0  0  0
 21 22  1  0  0  0
 21 18  2  0  0  0
 23 26  1  0  0  0
 17 18  1  0  0  0
  8  7  1  0  0  0
 26 20  1  0  0  0
  7  9  2  0  0  0
 10 11  1  0  0  0
 12 15  1  0  0  0
 13 14  1  0  0  0
 18 24  1  0  0  0
 19 25  1  0  0  0
 20 21  1  0  0  0
 22 23  2  0  0  0
 26 27  1  0  0  0
M  END
> <minimizedAffinity>
-8.66789

$$$$
CHEMBL4280010


 27 31  0  0  0  0  0  0  0  0999 V2000
   -3.3785   16.9880   -6.7747 C   0  0  0  0  0  0  0  0  0  0  0  0
   -4.6599   17.0642   -7.6250 C   0  0  0  0  0  0  0  0  0  0  0  0
   -3.9384   19.3414   -7.2567 C   0  0  0  0  0  0  0  0  0  0  0  0
   -2.8999   18.4241   -6.6621 C   0  0  0  0  0  0  0  0  0  0  0  0
   -1.4269   18.7357   -6.8824 C   0  0  0  0  0  0  0  0  0  0  0  0
   -2.0204   18.9121   -5.5206 C   0  0  0  0  0  0  0  0  0  0  0  0
   -6.0923   19.0353   -8.3755 C   0  0  0  0  0  0  0  0  0  0  0  0
   -4.9837   18.4803   -7.7719 N   0  0  0  0  0  0  0  0  0  0  0  0
   -6.2089   20.2379   -8.5982 O   0  0  0  0  0  0  0  0  0  0  0  0
   -7.1891   18.1507   -8.7975 C   0  0  0  0  0  0  0  0  0  0  0  0
   -7.6033   18.1752  -10.1204 C   0  0  0  0  0  0  0  0  0  0  0  0
   -9.2578   16.6242   -9.7108 C   0  0  0  0  0  0  0  0  0  0  0  0
   -8.9360   16.5604   -8.3625 C   0  0  0  0  0  0  0  0  0  0  0  0
   -7.8851   17.3460   -7.8961 C   0  0  0  0  0  0  0  0  0  0  0  0
   -8.6165   17.4129  -10.6027 N   0  0  0  0  0  0  0  0  0  0  0  0
   -4.7312   16.6074   -4.7105 C   0  0  0  0  0  0  0  0  0  0  0  0
   -3.5370   16.3033   -5.4767 N   0  0  0  0  0  0  0  0  0  0  0  0
   -2.6466   15.3266   -5.0449 C   0  0  0  0  0  0  0  0  0  0  0  0
   -0.6442   14.8380   -3.8998 C   0  0  0  0  0  0  0  0  0  0  0  0
   -1.7349   13.1244   -4.7549 C   0  0  0  0  0  0  0  0  0  0  0  0
   -2.7502   13.9247   -5.2709 C   0  0  0  0  0  0  0  0  0  0  0  0
   -3.6516   13.0157   -5.9127 C   0  0  0  0  0  0  0  0  0  0  0  0
   -3.1620   11.7340   -5.7712 C   0  0  0  0  0  0  0  0  0  0  0  0
   -1.5579   15.7261   -4.3271 N   0  0  0  0  0  0  0  0  0  0  0  0
   -0.6568   13.5128   -4.0632 N   0  0  0  0  0  0  0  0  0  0  0  0
   -1.9944   11.8187   -5.0655 N   0  0  0  0  0  0  0  0  0  0  0  0
   -1.3941   11.0517   -4.7991 H   0  0  0  0  0  0  0  0  0  0  0  0
 16 17  1  0  0  0
  1 17  1  0  0  0
  1  2  1  0  0  0
  2  8  1  0  0  0
  3  8  1  0  0  0
  3  4  1  0  0  0
  4  5  1  0  0  0
  4  1  1  0  0  0
  5  6  1  0  0  0
  6  4  1  0  0  0
  7 10  1  0  0  0
 11 15  2  0  0  0
 12 13  2  0  0  0
 14 10  2  0  0  0
 19 24  2  0  0  0
 20 25  2  0  0  0
 21 22  1  0  0  0
 21 18  2  0  0  0
 23 26  1  0  0  0
 17 18  1  0  0  0
  8  7  1  0  0  0
 26 20  1  0  0  0
  7  9  2  0  0  0
 10 11  1  0  0  0
 12 15  1  0  0  0
 13 14  1  0  0  0
 18 24  1  0  0  0
 19 25  1  0  0  0
 20 21  1  0  0  0
 22 23  2  0  0  0
 26 27  1  0  0  0
M  END
> <minimizedAffinity>
-8.55843

$$$$
CHEMBL3718794


 27 30  0  0  0  0  0  0  0  0999 V2000
   -3.4270   13.8171   -5.7119 N   0  0  0  0  0  0  0  0  0  0  0  0
   -2.1477   11.9014   -4.9881 N   0  0  0  0  0  0  0  0  0  0  0  0
   -0.1143   12.4847   -3.8795 N   0  0  0  0  0  0  0  0  0  0  0  0
   -3.1869   12.4987   -5.5886 C   0  0  0  0  0  0  0  0  0  0  0  0
   -1.2752   12.8055   -4.5231 C   0  0  0  0  0  0  0  0  0  0  0  0
   -1.3763   14.1868   -4.5926 C   0  0  0  0  0  0  0  0  0  0  0  0
   -2.5571   14.7129   -5.1707 C   0  0  0  0  0  0  0  0  0  0  0  0
   -0.1518   14.7033   -4.0458 C   0  0  0  0  0  0  0  0  0  0  0  0
    0.5897   13.6225   -3.5633 C   0  0  0  0  0  0  0  0  0  0  0  0
    1.8178   13.7753   -2.9110 C   0  0  0  0  0  0  0  0  0  0  0  0
    2.3031   15.0780   -2.7411 C   0  0  0  0  0  0  0  0  0  0  0  0
    1.6102   16.1878   -3.2367 C   0  0  0  0  0  0  0  0  0  0  0  0
    0.4035   15.9970   -3.9227 C   0  0  0  0  0  0  0  0  0  0  0  0
    0.1767   11.5379   -3.6896 H   0  0  0  0  0  0  0  0  0  0  0  0
   -2.8746   16.0579   -5.2228 N   0  0  0  0  0  0  0  0  0  0  0  0
   -3.9483   16.6049   -4.4044 C   0  0  0  0  0  0  0  0  0  0  0  0
   -5.1496   17.0343   -5.2533 C   0  0  0  0  0  0  0  0  0  0  0  0
   -4.7109   17.8899   -6.4506 C   0  0  0  0  0  0  0  0  0  0  0  0
   -3.5192   17.3413   -7.2520 C   0  0  0  0  0  0  0  0  0  0  0  0
   -2.3853   16.8649   -6.3337 C   0  0  0  0  0  0  0  0  0  0  0  0
   -3.9269   16.2862   -8.2791 C   0  0  0  0  0  0  0  0  0  0  0  0
   -6.0265   15.8420   -5.6360 C   0  0  0  0  0  0  0  0  0  0  0  0
    3.4524   17.6390   -2.4915 N   0  0  0  0  0  0  0  0  0  0  0  0
    2.1867   17.5437   -3.0020 C   0  0  0  0  0  0  0  0  0  0  0  0
    1.5625   18.5618   -3.2788 O   0  0  0  0  0  0  0  0  0  0  0  0
    3.8187   18.5726   -2.3569 H   0  0  0  0  0  0  0  0  0  0  0  0
    4.0525   16.8631   -2.2647 H   0  0  0  0  0  0  0  0  0  0  0  0
  3  5  1  0  0  0
  4  2  2  0  0  0
  5  6  2  0  0  0
  6  8  1  0  0  0
  7 15  1  0  0  0
  7  1  2  0  0  0
 16 15  1  0  0  0
 16 17  1  0  0  0
 17 18  1  0  0  0
 17 22  1  0  0  0
 18 19  1  0  0  0
 19 20  1  0  0  0
 19 21  1  0  0  0
 20 15  1  0  0  0
  9  3  1  0  0  0
  9 10  2  0  0  0
 11 12  2  0  0  0
 12 24  1  0  0  0
 13  8  2  0  0  0
 24 23  1  0  0  0
  4  1  1  0  0  0
  5  2  1  0  0  0
  6  7  1  0  0  0
  8  9  1  0  0  0
 10 11  1  0  0  0
 12 13  1  0  0  0
 24 25  2  0  0  0
  3 14  1  0  0  0
 23 26  1  0  0  0
 23 27  1  0  0  0
M  END
> <minimizedAffinity>
-9.88600

$$$$
CHEMBL3718794


 27 30  0  0  0  0  0  0  0  0999 V2000
   -2.1367   13.5430   -5.0081 N   0  0  0  0  0  0  0  0  0  0  0  0
   -0.2802   12.7385   -3.6902 N   0  0  0  0  0  0  0  0  0  0  0  0
    1.2004   14.4735   -2.9820 N   0  0  0  0  0  0  0  0  0  0  0  0
   -1.3970   12.5871   -4.4162 C   0  0  0  0  0  0  0  0  0  0  0  0
    0.0905   14.0249   -3.6390 C   0  0  0  0  0  0  0  0  0  0  0  0
   -0.5547   15.1108   -4.2113 C   0  0  0  0  0  0  0  0  0  0  0  0
   -1.7736   14.8486   -4.8830 C   0  0  0  0  0  0  0  0  0  0  0  0
    0.2834   16.2503   -3.9582 C   0  0  0  0  0  0  0  0  0  0  0  0
    1.3402   15.8312   -3.1470 C   0  0  0  0  0  0  0  0  0  0  0  0
    2.3175   16.7064   -2.6611 C   0  0  0  0  0  0  0  0  0  0  0  0
    2.2087   18.0578   -3.0120 C   0  0  0  0  0  0  0  0  0  0  0  0
    1.1855   18.5169   -3.8486 C   0  0  0  0  0  0  0  0  0  0  0  0
    0.2469   17.6068   -4.3527 C   0  0  0  0  0  0  0  0  0  0  0  0
    1.8275   13.8728   -2.4690 H   0  0  0  0  0  0  0  0  0  0  0  0
   -2.6023   15.8198   -5.4148 N   0  0  0  0  0  0  0  0  0  0  0  0
   -3.9896   15.9353   -4.9861 C   0  0  0  0  0  0  0  0  0  0  0  0
   -4.9647   15.5284   -6.0959 C   0  0  0  0  0  0  0  0  0  0  0  0
   -4.6111   16.2069   -7.4274 C   0  0  0  0  0  0  0  0  0  0  0  0
   -3.1264   16.1513   -7.8223 C   0  0  0  0  0  0  0  0  0  0  0  0
   -2.2090   16.5005   -6.6422 C   0  0  0  0  0  0  0  0  0  0  0  0
   -2.7389   14.8379   -8.4999 C   0  0  0  0  0  0  0  0  0  0  0  0
   -5.1051   14.0095   -6.1964 C   0  0  0  0  0  0  0  0  0  0  0  0
    0.7597   20.8452   -3.1762 N   0  0  0  0  0  0  0  0  0  0  0  0
    1.1304   19.9740   -4.1638 C   0  0  0  0  0  0  0  0  0  0  0  0
    1.4318   20.4014   -5.2725 O   0  0  0  0  0  0  0  0  0  0  0  0
    0.7453   21.8275   -3.4189 H   0  0  0  0  0  0  0  0  0  0  0  0
    0.5267   20.5932   -2.2298 H   0  0  0  0  0  0  0  0  0  0  0  0
  3  5  1  0  0  0
  4  2  2  0  0  0
  5  6  2  0  0  0
  6  8  1  0  0  0
  7 15  1  0  0  0
  7  1  2  0  0  0
 16 15  1  0  0  0
 16 17  1  0  0  0
 17 18  1  0  0  0
 17 22  1  0  0  0
 18 19  1  0  0  0
 19 20  1  0  0  0
 19 21  1  0  0  0
 20 15  1  0  0  0
  9  3  1  0  0  0
  9 10  2  0  0  0
 11 12  2  0  0  0
 12 24  1  0  0  0
 13  8  2  0  0  0
 24 23  1  0  0  0
  4  1  1  0  0  0
  5  2  1  0  0  0
  6  7  1  0  0  0
  8  9  1  0  0  0
 10 11  1  0  0  0
 12 13  1  0  0  0
 24 25  2  0  0  0
  3 14  1  0  0  0
 23 26  1  0  0  0
 23 27  1  0  0  0
M  END
> <minimizedAffinity>
-9.82650

$$$$
CHEMBL3718794


 27 30  0  0  0  0  0  0  0  0999 V2000
   -1.3043   14.3678   -4.7421 N   0  0  0  0  0  0  0  0  0  0  0  0
    0.6166   14.1849   -3.2903 N   0  0  0  0  0  0  0  0  0  0  0  0
    1.6707   16.2815   -2.8462 N   0  0  0  0  0  0  0  0  0  0  0  0
   -0.4101   13.6917   -3.9974 C   0  0  0  0  0  0  0  0  0  0  0  0
    0.7094   15.5132   -3.4382 C   0  0  0  0  0  0  0  0  0  0  0  0
   -0.1204   16.3378   -4.1829 C   0  0  0  0  0  0  0  0  0  0  0  0
   -1.2262   15.7243   -4.8201 C   0  0  0  0  0  0  0  0  0  0  0  0
    0.4504   17.6542   -4.1023 C   0  0  0  0  0  0  0  0  0  0  0  0
    1.5330   17.5968   -3.2218 C   0  0  0  0  0  0  0  0  0  0  0  0
    2.2841   18.7228   -2.8678 C   0  0  0  0  0  0  0  0  0  0  0  0
    1.9132   19.9511   -3.4290 C   0  0  0  0  0  0  0  0  0  0  0  0
    0.8564   20.0503   -4.3405 C   0  0  0  0  0  0  0  0  0  0  0  0
    0.1512   18.8961   -4.7065 C   0  0  0  0  0  0  0  0  0  0  0  0
    2.3848   15.9125   -2.2369 H   0  0  0  0  0  0  0  0  0  0  0  0
   -2.2132   16.4053   -5.5091 N   0  0  0  0  0  0  0  0  0  0  0  0
   -3.6055   16.3325   -5.0870 C   0  0  0  0  0  0  0  0  0  0  0  0
   -4.4639   15.5503   -6.0866 C   0  0  0  0  0  0  0  0  0  0  0  0
   -4.2191   16.0258   -7.5261 C   0  0  0  0  0  0  0  0  0  0  0  0
   -2.7433   16.1810   -7.9276 C   0  0  0  0  0  0  0  0  0  0  0  0
   -1.9320   16.9098   -6.8474 C   0  0  0  0  0  0  0  0  0  0  0  0
   -2.1007   14.8629   -8.3567 C   0  0  0  0  0  0  0  0  0  0  0  0
   -4.3120   14.0404   -5.9021 C   0  0  0  0  0  0  0  0  0  0  0  0
    1.1193   22.4969   -4.3373 N   0  0  0  0  0  0  0  0  0  0  0  0
    0.5144   21.3976   -4.8825 C   0  0  0  0  0  0  0  0  0  0  0  0
   -0.2714   21.5328   -5.8137 O   0  0  0  0  0  0  0  0  0  0  0  0
    0.8755   23.3942   -4.7364 H   0  0  0  0  0  0  0  0  0  0  0  0
    1.7995   22.4836   -3.5951 H   0  0  0  0  0  0  0  0  0  0  0  0
  3  5  1  0  0  0
  4  2  2  0  0  0
  5  6  2  0  0  0
  6  8  1  0  0  0
  7 15  1  0  0  0
  7  1  2  0  0  0
 16 15  1  0  0  0
 16 17  1  0  0  0
 17 18  1  0  0  0
 17 22  1  0  0  0
 18 19  1  0  0  0
 19 20  1  0  0  0
 19 21  1  0  0  0
 20 15  1  0  0  0
  9  3  1  0  0  0
  9 10  2  0  0  0
 11 12  2  0  0  0
 12 24  1  0  0  0
 13  8  2  0  0  0
 24 23  1  0  0  0
  4  1  1  0  0  0
  5  2  1  0  0  0
  6  7  1  0  0  0
  8  9  1  0  0  0
 10 11  1  0  0  0
 12 13  1  0  0  0
 24 25  2  0  0  0
  3 14  1  0  0  0
 23 26  1  0  0  0
 23 27  1  0  0  0
M  END
> <minimizedAffinity>
-8.81532

$$$$
CHEMBL3718794


 27 30  0  0  0  0  0  0  0  0999 V2000
   -4.5432   14.8043   -5.9704 N   0  0  0  0  0  0  0  0  0  0  0  0
   -3.5129   12.6344   -5.7234 N   0  0  0  0  0  0  0  0  0  0  0  0
   -1.3698   12.7180   -4.6724 N   0  0  0  0  0  0  0  0  0  0  0  0
   -4.4845   13.4682   -6.1211 C   0  0  0  0  0  0  0  0  0  0  0  0
   -2.5024   13.3075   -5.1569 C   0  0  0  0  0  0  0  0  0  0  0  0
   -2.4124   14.6759   -4.9514 C   0  0  0  0  0  0  0  0  0  0  0  0
   -3.5330   15.4542   -5.3308 C   0  0  0  0  0  0  0  0  0  0  0  0
   -1.1042   14.9110   -4.4050 C   0  0  0  0  0  0  0  0  0  0  0  0
   -0.5001   13.6695   -4.1944 C   0  0  0  0  0  0  0  0  0  0  0  0
    0.7655   13.5297   -3.6150 C   0  0  0  0  0  0  0  0  0  0  0  0
    1.4354   14.6986   -3.2327 C   0  0  0  0  0  0  0  0  0  0  0  0
    0.8828   15.9648   -3.4540 C   0  0  0  0  0  0  0  0  0  0  0  0
   -0.3686   16.0716   -4.0753 C   0  0  0  0  0  0  0  0  0  0  0  0
   -1.2059   11.7230   -4.6900 H   0  0  0  0  0  0  0  0  0  0  0  0
   -3.6613   16.8117   -5.0998 N   0  0  0  0  0  0  0  0  0  0  0  0
   -4.8630   17.5286   -5.5043 C   0  0  0  0  0  0  0  0  0  0  0  0
   -4.5889   18.4910   -6.6648 C   0  0  0  0  0  0  0  0  0  0  0  0
   -3.3474   19.3535   -6.3947 C   0  0  0  0  0  0  0  0  0  0  0  0
   -2.1133   18.5918   -5.8845 C   0  0  0  0  0  0  0  0  0  0  0  0
   -2.4766   17.5960   -4.7742 C   0  0  0  0  0  0  0  0  0  0  0  0
   -1.3029   17.9491   -7.0090 C   0  0  0  0  0  0  0  0  0  0  0  0
   -4.5522   17.7615   -8.0077 C   0  0  0  0  0  0  0  0  0  0  0  0
    2.9502   16.9926   -2.6031 N   0  0  0  0  0  0  0  0  0  0  0  0
    1.6532   17.1607   -3.0046 C   0  0  0  0  0  0  0  0  0  0  0  0
    1.1577   18.2819   -3.0124 O   0  0  0  0  0  0  0  0  0  0  0  0
    3.4487   17.8255   -2.3171 H   0  0  0  0  0  0  0  0  0  0  0  0
    3.4519   16.1198   -2.5929 H   0  0  0  0  0  0  0  0  0  0  0  0
  3  5  1  0  0  0
  4  2  2  0  0  0
  5  6  2  0  0  0
  6  8  1  0  0  0
  7 15  1  0  0  0
  7  1  2  0  0  0
 16 15  1  0  0  0
 16 17  1  0  0  0
 17 18  1  0  0  0
 17 22  1  0  0  0
 18 19  1  0  0  0
 19 20  1  0  0  0
 19 21  1  0  0  0
 20 15  1  0  0  0
  9  3  1  0  0  0
  9 10  2  0  0  0
 11 12  2  0  0  0
 12 24  1  0  0  0
 13  8  2  0  0  0
 24 23  1  0  0  0
  4  1  1  0  0  0
  5  2  1  0  0  0
  6  7  1  0  0  0
  8  9  1  0  0  0
 10 11  1  0  0  0
 12 13  1  0  0  0
 24 25  2  0  0  0
  3 14  1  0  0  0
 23 26  1  0  0  0
 23 27  1  0  0  0
M  END
> <minimizedAffinity>
-8.48416

$$$$
CHEMBL3718794


 27 30  0  0  0  0  0  0  0  0999 V2000
   -2.2660   19.0052   -6.3024 N   0  0  0  0  0  0  0  0  0  0  0  0
   -0.6071   20.4287   -5.2764 N   0  0  0  0  0  0  0  0  0  0  0  0
    1.0782   19.2182   -4.0937 N   0  0  0  0  0  0  0  0  0  0  0  0
   -1.7237   20.1941   -5.9803 C   0  0  0  0  0  0  0  0  0  0  0  0
   -0.0581   19.2840   -4.8482 C   0  0  0  0  0  0  0  0  0  0  0  0
   -0.5101   17.9940   -5.0820 C   0  0  0  0  0  0  0  0  0  0  0  0
   -1.6499   17.8566   -5.9110 C   0  0  0  0  0  0  0  0  0  0  0  0
    0.3582   17.1266   -4.3345 C   0  0  0  0  0  0  0  0  0  0  0  0
    1.3669   17.9128   -3.7732 C   0  0  0  0  0  0  0  0  0  0  0  0
    2.4202   17.3760   -3.0251 C   0  0  0  0  0  0  0  0  0  0  0  0
    2.4467   15.9869   -2.8484 C   0  0  0  0  0  0  0  0  0  0  0  0
    1.4401   15.1638   -3.3649 C   0  0  0  0  0  0  0  0  0  0  0  0
    0.3764   15.7379   -4.0736 C   0  0  0  0  0  0  0  0  0  0  0  0
    1.6064   20.0280   -3.8064 H   0  0  0  0  0  0  0  0  0  0  0  0
   -2.1703   16.6483   -6.3374 N   0  0  0  0  0  0  0  0  0  0  0  0
   -2.4533   16.4118   -7.7466 C   0  0  0  0  0  0  0  0  0  0  0  0
   -3.9588   16.3260   -8.0189 C   0  0  0  0  0  0  0  0  0  0  0  0
   -4.6543   15.3856   -7.0238 C   0  0  0  0  0  0  0  0  0  0  0  0
   -4.2775   15.5916   -5.5477 C   0  0  0  0  0  0  0  0  0  0  0  0
   -2.7611   15.7408   -5.3617 C   0  0  0  0  0  0  0  0  0  0  0  0
   -5.0653   16.7196   -4.8834 C   0  0  0  0  0  0  0  0  0  0  0  0
   -4.5974   17.7122   -8.1063 C   0  0  0  0  0  0  0  0  0  0  0  0
    0.4845   12.8992   -3.4786 N   0  0  0  0  0  0  0  0  0  0  0  0
    1.5485   13.6921   -3.1457 C   0  0  0  0  0  0  0  0  0  0  0  0
    2.5718   13.1844   -2.7007 O   0  0  0  0  0  0  0  0  0  0  0  0
    0.5953   11.9044   -3.3300 H   0  0  0  0  0  0  0  0  0  0  0  0
   -0.3820   13.2193   -3.8790 H   0  0  0  0  0  0  0  0  0  0  0  0
  3  5  1  0  0  0
  4  2  2  0  0  0
  5  6  2  0  0  0
  6  8  1  0  0  0
  7 15  1  0  0  0
  7  1  2  0  0  0
 16 15  1  0  0  0
 16 17  1  0  0  0
 17 18  1  0  0  0
 17 22  1  0  0  0
 18 19  1  0  0  0
 19 20  1  0  0  0
 19 21  1  0  0  0
 20 15  1  0  0  0
  9  3  1  0  0  0
  9 10  2  0  0  0
 11 12  2  0  0  0
 12 24  1  0  0  0
 13  8  2  0  0  0
 24 23  1  0  0  0
  4  1  1  0  0  0
  5  2  1  0  0  0
  6  7  1  0  0  0
  8  9  1  0  0  0
 10 11  1  0  0  0
 12 13  1  0  0  0
 24 25  2  0  0  0
  3 14  1  0  0  0
 23 26  1  0  0  0
 23 27  1  0  0  0
M  END
> <minimizedAffinity>
-8.40223

$$$$
CHEMBL3718794


 27 30  0  0  0  0  0  0  0  0999 V2000
   -2.7435   18.6209   -6.8627 N   0  0  0  0  0  0  0  0  0  0  0  0
   -3.4194   20.7333   -7.8175 N   0  0  0  0  0  0  0  0  0  0  0  0
   -5.6548   20.7203   -8.6584 N   0  0  0  0  0  0  0  0  0  0  0  0
   -2.5466   19.8993   -7.2345 C   0  0  0  0  0  0  0  0  0  0  0  0
   -4.5855   20.1192   -8.0582 C   0  0  0  0  0  0  0  0  0  0  0  0
   -4.9270   18.8104   -7.7523 C   0  0  0  0  0  0  0  0  0  0  0  0
   -3.9600   18.0431   -7.0585 C   0  0  0  0  0  0  0  0  0  0  0  0
   -6.2406   18.6041   -8.2975 C   0  0  0  0  0  0  0  0  0  0  0  0
   -6.6873   19.8249   -8.8083 C   0  0  0  0  0  0  0  0  0  0  0  0
   -7.9595   19.9950   -9.3648 C   0  0  0  0  0  0  0  0  0  0  0  0
   -8.8069   18.8804   -9.3962 C   0  0  0  0  0  0  0  0  0  0  0  0
   -8.3901   17.6304   -8.9257 C   0  0  0  0  0  0  0  0  0  0  0  0
   -7.0943   17.4840   -8.4130 C   0  0  0  0  0  0  0  0  0  0  0  0
   -5.6589   21.6828   -8.9595 H   0  0  0  0  0  0  0  0  0  0  0  0
   -4.1693   16.7629   -6.5790 N   0  0  0  0  0  0  0  0  0  0  0  0
   -3.9427   16.4438   -5.1759 C   0  0  0  0  0  0  0  0  0  0  0  0
   -2.7259   15.5315   -4.9883 C   0  0  0  0  0  0  0  0  0  0  0  0
   -2.7678   14.3379   -5.9536 C   0  0  0  0  0  0  0  0  0  0  0  0
   -3.0947   14.6830   -7.4156 C   0  0  0  0  0  0  0  0  0  0  0  0
   -4.2773   15.6559   -7.5211 C   0  0  0  0  0  0  0  0  0  0  0  0
   -1.8736   15.1537   -8.2041 C   0  0  0  0  0  0  0  0  0  0  0  0
   -1.4163   16.3185   -5.0378 C   0  0  0  0  0  0  0  0  0  0  0  0
  -10.2140   16.4153  -10.0443 N   0  0  0  0  0  0  0  0  0  0  0  0
   -9.3574   16.4960   -8.9806 C   0  0  0  0  0  0  0  0  0  0  0  0
   -9.3807   15.6314   -8.1119 O   0  0  0  0  0  0  0  0  0  0  0  0
  -10.8481   15.6267  -10.0580 H   0  0  0  0  0  0  0  0  0  0  0  0
  -10.2474   17.0567  -10.8196 H   0  0  0  0  0  0  0  0  0  0  0  0
  3  5  1  0  0  0
  4  2  2  0  0  0
  5  6  2  0  0  0
  6  8  1  0  0  0
  7 15  1  0  0  0
  7  1  2  0  0  0
 16 15  1  0  0  0
 16 17  1  0  0  0
 17 18  1  0  0  0
 17 22  1  0  0  0
 18 19  1  0  0  0
 19 20  1  0  0  0
 19 21  1  0  0  0
 20 15  1  0  0  0
  9  3  1  0  0  0
  9 10  2  0  0  0
 11 12  2  0  0  0
 12 24  1  0  0  0
 13  8  2  0  0  0
 24 23  1  0  0  0
  4  1  1  0  0  0
  5  2  1  0  0  0
  6  7  1  0  0  0
  8  9  1  0  0  0
 10 11  1  0  0  0
 12 13  1  0  0  0
 24 25  2  0  0  0
  3 14  1  0  0  0
 23 26  1  0  0  0
 23 27  1  0  0  0
M  END
> <minimizedAffinity>
-8.13357

$$$$
CHEMBL3718794


 27 30  0  0  0  0  0  0  0  0999 V2000
   -1.8499   18.3902   -5.8797 N   0  0  0  0  0  0  0  0  0  0  0  0
   -0.0913   17.7122   -4.3703 N   0  0  0  0  0  0  0  0  0  0  0  0
   -0.0610   15.3620   -3.9464 N   0  0  0  0  0  0  0  0  0  0  0  0
   -0.8043   18.6124   -5.0620 C   0  0  0  0  0  0  0  0  0  0  0  0
   -0.5785   16.4762   -4.5427 C   0  0  0  0  0  0  0  0  0  0  0  0
   -1.6535   16.0973   -5.3326 C   0  0  0  0  0  0  0  0  0  0  0  0
   -2.2814   17.1165   -6.0890 C   0  0  0  0  0  0  0  0  0  0  0  0
   -1.8379   14.6904   -5.1052 C   0  0  0  0  0  0  0  0  0  0  0  0
   -0.8004   14.2518   -4.2796 C   0  0  0  0  0  0  0  0  0  0  0  0
   -0.6426   12.9132   -3.9047 C   0  0  0  0  0  0  0  0  0  0  0  0
   -1.5744   11.9895   -4.3945 C   0  0  0  0  0  0  0  0  0  0  0  0
   -2.6482   12.3886   -5.1977 C   0  0  0  0  0  0  0  0  0  0  0  0
   -2.8016   13.7436   -5.5200 C   0  0  0  0  0  0  0  0  0  0  0  0
    0.7410   15.3763   -3.3350 H   0  0  0  0  0  0  0  0  0  0  0  0
   -3.2918   16.9030   -7.0089 N   0  0  0  0  0  0  0  0  0  0  0  0
   -3.7237   17.9669   -7.9053 C   0  0  0  0  0  0  0  0  0  0  0  0
   -5.1327   18.4631   -7.5635 C   0  0  0  0  0  0  0  0  0  0  0  0
   -6.1100   17.2921   -7.3856 C   0  0  0  0  0  0  0  0  0  0  0  0
   -5.6030   16.1374   -6.5065 C   0  0  0  0  0  0  0  0  0  0  0  0
   -4.1618   15.7433   -6.8582 C   0  0  0  0  0  0  0  0  0  0  0  0
   -5.7940   16.3972   -5.0131 C   0  0  0  0  0  0  0  0  0  0  0  0
   -5.1185   19.4383   -6.3864 C   0  0  0  0  0  0  0  0  0  0  0  0
   -4.8883   11.3726   -5.2629 N   0  0  0  0  0  0  0  0  0  0  0  0
   -3.5894   11.3415   -5.6912 C   0  0  0  0  0  0  0  0  0  0  0  0
   -3.2290   10.4786   -6.4839 O   0  0  0  0  0  0  0  0  0  0  0  0
   -5.5037   10.6564   -5.6267 H   0  0  0  0  0  0  0  0  0  0  0  0
   -5.2839   12.0583   -4.6409 H   0  0  0  0  0  0  0  0  0  0  0  0
  3  5  1  0  0  0
  4  2  2  0  0  0
  5  6  2  0  0  0
  6  8  1  0  0  0
  7 15  1  0  0  0
  7  1  2  0  0  0
 16 15  1  0  0  0
 16 17  1  0  0  0
 17 18  1  0  0  0
 17 22  1  0  0  0
 18 19  1  0  0  0
 19 20  1  0  0  0
 19 21  1  0  0  0
 20 15  1  0  0  0
  9  3  1  0  0  0
  9 10  2  0  0  0
 11 12  2  0  0  0
 12 24  1  0  0  0
 13  8  2  0  0  0
 24 23  1  0  0  0
  4  1  1  0  0  0
  5  2  1  0  0  0
  6  7  1  0  0  0
  8  9  1  0  0  0
 10 11  1  0  0  0
 12 13  1  0  0  0
 24 25  2  0  0  0
  3 14  1  0  0  0
 23 26  1  0  0  0
 23 27  1  0  0  0
M  END
> <minimizedAffinity>
-8.12634

$$$$
CHEMBL3718794


 27 30  0  0  0  0  0  0  0  0999 V2000
   -0.7889   17.7680   -3.9966 N   0  0  0  0  0  0  0  0  0  0  0  0
    1.1343   16.4856   -3.2985 N   0  0  0  0  0  0  0  0  0  0  0  0
    0.8885   14.1375   -3.6597 N   0  0  0  0  0  0  0  0  0  0  0  0
    0.4351   17.6183   -3.4575 C   0  0  0  0  0  0  0  0  0  0  0  0
    0.4324   15.4235   -3.7159 C   0  0  0  0  0  0  0  0  0  0  0  0
   -0.8383   15.4191   -4.2712 C   0  0  0  0  0  0  0  0  0  0  0  0
   -1.4514   16.6794   -4.4742 C   0  0  0  0  0  0  0  0  0  0  0  0
   -1.1862   14.0374   -4.4580 C   0  0  0  0  0  0  0  0  0  0  0  0
   -0.0721   13.2669   -4.1174 C   0  0  0  0  0  0  0  0  0  0  0  0
   -0.0471   11.8735   -4.2386 C   0  0  0  0  0  0  0  0  0  0  0  0
   -1.1986   11.2454   -4.7296 C   0  0  0  0  0  0  0  0  0  0  0  0
   -2.3486   11.9738   -5.0525 C   0  0  0  0  0  0  0  0  0  0  0  0
   -2.3550   13.3643   -4.8794 C   0  0  0  0  0  0  0  0  0  0  0  0
    1.7992   13.8820   -3.3097 H   0  0  0  0  0  0  0  0  0  0  0  0
   -2.6631   16.8699   -5.1131 N   0  0  0  0  0  0  0  0  0  0  0  0
   -3.2378   15.8272   -5.9523 C   0  0  0  0  0  0  0  0  0  0  0  0
   -3.2232   16.2160   -7.4344 C   0  0  0  0  0  0  0  0  0  0  0  0
   -3.7749   17.6333   -7.6462 C   0  0  0  0  0  0  0  0  0  0  0  0
   -3.2218   18.7057   -6.6937 C   0  0  0  0  0  0  0  0  0  0  0  0
   -3.2004   18.2191   -5.2380 C   0  0  0  0  0  0  0  0  0  0  0  0
   -1.8748   19.2670   -7.1461 C   0  0  0  0  0  0  0  0  0  0  0  0
   -1.8492   15.9889   -8.0649 C   0  0  0  0  0  0  0  0  0  0  0  0
   -4.7590   11.4793   -5.0368 N   0  0  0  0  0  0  0  0  0  0  0  0
   -3.5293   11.2322   -5.5832 C   0  0  0  0  0  0  0  0  0  0  0  0
   -3.4216   10.4329   -6.5064 O   0  0  0  0  0  0  0  0  0  0  0  0
   -5.5407   10.9697   -5.4284 H   0  0  0  0  0  0  0  0  0  0  0  0
   -4.9512   12.1389   -4.3010 H   0  0  0  0  0  0  0  0  0  0  0  0
  3  5  1  0  0  0
  4  2  2  0  0  0
  5  6  2  0  0  0
  6  8  1  0  0  0
  7 15  1  0  0  0
  7  1  2  0  0  0
 16 15  1  0  0  0
 16 17  1  0  0  0
 17 18  1  0  0  0
 17 22  1  0  0  0
 18 19  1  0  0  0
 19 20  1  0  0  0
 19 21  1  0  0  0
 20 15  1  0  0  0
  9  3  1  0  0  0
  9 10  2  0  0  0
 11 12  2  0  0  0
 12 24  1  0  0  0
 13  8  2  0  0  0
 24 23  1  0  0  0
  4  1  1  0  0  0
  5  2  1  0  0  0
  6  7  1  0  0  0
  8  9  1  0  0  0
 10 11  1  0  0  0
 12 13  1  0  0  0
 24 25  2  0  0  0
  3 14  1  0  0  0
 23 26  1  0  0  0
 23 27  1  0  0  0
M  END
> <minimizedAffinity>
-8.09814

$$$$
CHEMBL3718794


 27 30  0  0  0  0  0  0  0  0999 V2000
   -1.8211   18.8729   -5.3520 N   0  0  0  0  0  0  0  0  0  0  0  0
    0.5248   19.2328   -4.9068 N   0  0  0  0  0  0  0  0  0  0  0  0
    1.6900   17.2385   -4.2990 N   0  0  0  0  0  0  0  0  0  0  0  0
   -0.7155   19.6298   -5.2252 C   0  0  0  0  0  0  0  0  0  0  0  0
    0.5612   17.9161   -4.6617 C   0  0  0  0  0  0  0  0  0  0  0  0
   -0.4921   17.0169   -4.7321 C   0  0  0  0  0  0  0  0  0  0  0  0
   -1.7407   17.5276   -5.1629 C   0  0  0  0  0  0  0  0  0  0  0  0
    0.0313   15.7552   -4.2856 C   0  0  0  0  0  0  0  0  0  0  0  0
    1.4027   15.9130   -4.0737 C   0  0  0  0  0  0  0  0  0  0  0  0
    2.2373   14.8589   -3.6871 C   0  0  0  0  0  0  0  0  0  0  0  0
    1.6514   13.5984   -3.5159 C   0  0  0  0  0  0  0  0  0  0  0  0
    0.2768   13.4009   -3.6856 C   0  0  0  0  0  0  0  0  0  0  0  0
   -0.5380   14.4870   -4.0318 C   0  0  0  0  0  0  0  0  0  0  0  0
    2.5946   17.6727   -4.1975 H   0  0  0  0  0  0  0  0  0  0  0  0
   -2.8662   16.7584   -5.3955 N   0  0  0  0  0  0  0  0  0  0  0  0
   -2.7481   15.3707   -5.8224 C   0  0  0  0  0  0  0  0  0  0  0  0
   -3.2089   15.1789   -7.2712 C   0  0  0  0  0  0  0  0  0  0  0  0
   -4.5690   15.8477   -7.5185 C   0  0  0  0  0  0  0  0  0  0  0  0
   -4.7056   17.2825   -6.9838 C   0  0  0  0  0  0  0  0  0  0  0  0
   -4.1585   17.4133   -5.5555 C   0  0  0  0  0  0  0  0  0  0  0  0
   -4.1268   18.3300   -7.9335 C   0  0  0  0  0  0  0  0  0  0  0  0
   -2.1273   15.5948   -8.2682 C   0  0  0  0  0  0  0  0  0  0  0  0
    0.6043   10.9710   -3.4785 N   0  0  0  0  0  0  0  0  0  0  0  0
   -0.2681   12.0247   -3.4989 C   0  0  0  0  0  0  0  0  0  0  0  0
   -1.4675   11.8266   -3.3405 O   0  0  0  0  0  0  0  0  0  0  0  0
    0.2039   10.0525   -3.3368 H   0  0  0  0  0  0  0  0  0  0  0  0
    1.6050   11.0371   -3.5671 H   0  0  0  0  0  0  0  0  0  0  0  0
  3  5  1  0  0  0
  4  2  2  0  0  0
  5  6  2  0  0  0
  6  8  1  0  0  0
  7 15  1  0  0  0
  7  1  2  0  0  0
 16 15  1  0  0  0
 16 17  1  0  0  0
 17 18  1  0  0  0
 17 22  1  0  0  0
 18 19  1  0  0  0
 19 20  1  0  0  0
 19 21  1  0  0  0
 20 15  1  0  0  0
  9  3  1  0  0  0
  9 10  2  0  0  0
 11 12  2  0  0  0
 12 24  1  0  0  0
 13  8  2  0  0  0
 24 23  1  0  0  0
  4  1  1  0  0  0
  5  2  1  0  0  0
  6  7  1  0  0  0
  8  9  1  0  0  0
 10 11  1  0  0  0
 12 13  1  0  0  0
 24 25  2  0  0  0
  3 14  1  0  0  0
 23 26  1  0  0  0
 23 27  1  0  0  0
M  END
> <minimizedAffinity>
-8.00027

$$$$
CHEMBL3719102


 26 29  0  0  0  0  0  0  0  0999 V2000
   -3.3524   13.8250   -5.6635 N   0  0  0  0  0  0  0  0  0  0  0  0
   -2.0531   11.9161   -4.9526 N   0  0  0  0  0  0  0  0  0  0  0  0
   -0.0161   12.5131   -3.8551 N   0  0  0  0  0  0  0  0  0  0  0  0
   -3.1014   12.5077   -5.5441 C   0  0  0  0  0  0  0  0  0  0  0  0
   -1.1847   12.8253   -4.4896 C   0  0  0  0  0  0  0  0  0  0  0  0
   -1.2975   14.2056   -4.5545 C   0  0  0  0  0  0  0  0  0  0  0  0
   -2.4831   14.7245   -5.1283 C   0  0  0  0  0  0  0  0  0  0  0  0
   -0.0771   14.7321   -4.0101 C   0  0  0  0  0  0  0  0  0  0  0  0
    0.6792   13.6565   -3.5393 C   0  0  0  0  0  0  0  0  0  0  0  0
    1.9111   13.8193   -2.8968 C   0  0  0  0  0  0  0  0  0  0  0  0
    2.3848   15.1264   -2.7259 C   0  0  0  0  0  0  0  0  0  0  0  0
    1.6756   16.2316   -3.2092 C   0  0  0  0  0  0  0  0  0  0  0  0
    0.4633   16.0312   -3.8824 C   0  0  0  0  0  0  0  0  0  0  0  0
    0.2855   11.5683   -3.6716 H   0  0  0  0  0  0  0  0  0  0  0  0
   -2.7991   16.0705   -5.1837 N   0  0  0  0  0  0  0  0  0  0  0  0
   -3.9149   16.5950   -4.4065 C   0  0  0  0  0  0  0  0  0  0  0  0
   -5.0508   17.0536   -5.3152 C   0  0  0  0  0  0  0  0  0  0  0  0
   -4.5413   18.0067   -6.3926 C   0  0  0  0  0  0  0  0  0  0  0  0
   -3.3962   17.3885   -7.2076 C   0  0  0  0  0  0  0  0  0  0  0  0
   -2.2798   16.8793   -6.2821 C   0  0  0  0  0  0  0  0  0  0  0  0
   -3.9039   16.2980   -8.1533 C   0  0  0  0  0  0  0  0  0  0  0  0
    3.4926   17.6984   -2.4318 N   0  0  0  0  0  0  0  0  0  0  0  0
    2.2422   17.5921   -2.9769 C   0  0  0  0  0  0  0  0  0  0  0  0
    1.6229   18.6047   -3.2834 O   0  0  0  0  0  0  0  0  0  0  0  0
    3.8518   18.6349   -2.2987 H   0  0  0  0  0  0  0  0  0  0  0  0
    4.0872   16.9279   -2.1744 H   0  0  0  0  0  0  0  0  0  0  0  0
  3  5  1  0  0  0
  4  2  2  0  0  0
  5  6  2  0  0  0
  6  8  1  0  0  0
  7 15  1  0  0  0
  7  1  2  0  0  0
 16 15  1  0  0  0
 16 17  1  0  0  0
 17 18  1  0  0  0
 18 19  1  0  0  0
 19 20  1  0  0  0
 19 21  1  0  0  0
 20 15  1  0  0  0
  9  3  1  0  0  0
  9 10  2  0  0  0
 11 12  2  0  0  0
 12 23  1  0  0  0
 13  8  2  0  0  0
 23 22  1  0  0  0
  4  1  1  0  0  0
  5  2  1  0  0  0
  6  7  1  0  0  0
  8  9  1  0  0  0
 10 11  1  0  0  0
 12 13  1  0  0  0
 23 24  2  0  0  0
  3 14  1  0  0  0
 22 25  1  0  0  0
 22 26  1  0  0  0
M  END
> <minimizedAffinity>
-9.61877

$$$$
CHEMBL3719102


 26 29  0  0  0  0  0  0  0  0999 V2000
   -2.2556   13.3037   -5.0916 N   0  0  0  0  0  0  0  0  0  0  0  0
   -0.4038   12.4479   -3.7969 N   0  0  0  0  0  0  0  0  0  0  0  0
    1.0997   14.1507   -3.0552 N   0  0  0  0  0  0  0  0  0  0  0  0
   -1.5256   12.3263   -4.5221 C   0  0  0  0  0  0  0  0  0  0  0  0
   -0.0179   13.7285   -3.7173 C   0  0  0  0  0  0  0  0  0  0  0  0
   -0.6525   14.8337   -4.2631 C   0  0  0  0  0  0  0  0  0  0  0  0
   -1.8733   14.6007   -4.9411 C   0  0  0  0  0  0  0  0  0  0  0  0
    0.1953   15.9591   -3.9843 C   0  0  0  0  0  0  0  0  0  0  0  0
    1.2528   15.5105   -3.1900 C   0  0  0  0  0  0  0  0  0  0  0  0
    2.2419   16.3646   -2.6910 C   0  0  0  0  0  0  0  0  0  0  0  0
    2.1450   17.7248   -3.0113 C   0  0  0  0  0  0  0  0  0  0  0  0
    1.1203   18.2135   -3.8294 C   0  0  0  0  0  0  0  0  0  0  0  0
    0.1673   17.3250   -4.3445 C   0  0  0  0  0  0  0  0  0  0  0  0
    1.7233   13.5320   -2.5596 H   0  0  0  0  0  0  0  0  0  0  0  0
   -2.6811   15.5978   -5.4587 N   0  0  0  0  0  0  0  0  0  0  0  0
   -4.0955   15.6508   -5.1108 C   0  0  0  0  0  0  0  0  0  0  0  0
   -4.9715   15.3425   -6.3207 C   0  0  0  0  0  0  0  0  0  0  0  0
   -4.5910   16.2177   -7.5114 C   0  0  0  0  0  0  0  0  0  0  0  0
   -3.1012   16.0914   -7.8607 C   0  0  0  0  0  0  0  0  0  0  0  0
   -2.2262   16.3498   -6.6239 C   0  0  0  0  0  0  0  0  0  0  0  0
   -2.7895   14.7447   -8.5167 C   0  0  0  0  0  0  0  0  0  0  0  0
    0.7945   20.5384   -3.0905 N   0  0  0  0  0  0  0  0  0  0  0  0
    1.0805   19.6774   -4.1146 C   0  0  0  0  0  0  0  0  0  0  0  0
    1.3192   20.1187   -5.2332 O   0  0  0  0  0  0  0  0  0  0  0  0
    0.7874   21.5249   -3.3152 H   0  0  0  0  0  0  0  0  0  0  0  0
    0.6130   20.2743   -2.1361 H   0  0  0  0  0  0  0  0  0  0  0  0
  3  5  1  0  0  0
  4  2  2  0  0  0
  5  6  2  0  0  0
  6  8  1  0  0  0
  7 15  1  0  0  0
  7  1  2  0  0  0
 16 15  1  0  0  0
 16 17  1  0  0  0
 17 18  1  0  0  0
 18 19  1  0  0  0
 19 20  1  0  0  0
 19 21  1  0  0  0
 20 15  1  0  0  0
  9  3  1  0  0  0
  9 10  2  0  0  0
 11 12  2  0  0  0
 12 23  1  0  0  0
 13  8  2  0  0  0
 23 22  1  0  0  0
  4  1  1  0  0  0
  5  2  1  0  0  0
  6  7  1  0  0  0
  8  9  1  0  0  0
 10 11  1  0  0  0
 12 13  1  0  0  0
 23 24  2  0  0  0
  3 14  1  0  0  0
 22 25  1  0  0  0
 22 26  1  0  0  0
M  END
> <minimizedAffinity>
-9.47723

$$$$
CHEMBL3719102


 26 29  0  0  0  0  0  0  0  0999 V2000
   -0.4409   18.0184   -4.1710 N   0  0  0  0  0  0  0  0  0  0  0  0
    1.3066   16.6478   -3.2195 N   0  0  0  0  0  0  0  0  0  0  0  0
    0.9245   14.3045   -3.4892 N   0  0  0  0  0  0  0  0  0  0  0  0
    0.7112   17.8153   -3.5047 C   0  0  0  0  0  0  0  0  0  0  0  0
    0.5735   15.6141   -3.6544 C   0  0  0  0  0  0  0  0  0  0  0  0
   -0.6332   15.6661   -4.3350 C   0  0  0  0  0  0  0  0  0  0  0  0
   -1.1323   16.9515   -4.6556 C   0  0  0  0  0  0  0  0  0  0  0  0
   -1.0609   14.3041   -4.4940 C   0  0  0  0  0  0  0  0  0  0  0  0
   -0.0482   13.4784   -4.0011 C   0  0  0  0  0  0  0  0  0  0  0  0
   -0.1171   12.0820   -4.0501 C   0  0  0  0  0  0  0  0  0  0  0  0
   -1.2584   11.5096   -4.6262 C   0  0  0  0  0  0  0  0  0  0  0  0
   -2.3112   12.2976   -5.1045 C   0  0  0  0  0  0  0  0  0  0  0  0
   -2.2275   13.6927   -5.0052 C   0  0  0  0  0  0  0  0  0  0  0  0
    1.7739   14.0062   -3.0344 H   0  0  0  0  0  0  0  0  0  0  0  0
   -2.2678   17.1814   -5.4122 N   0  0  0  0  0  0  0  0  0  0  0  0
   -3.5797   16.8074   -4.8989 C   0  0  0  0  0  0  0  0  0  0  0  0
   -4.1790   15.6597   -5.7050 C   0  0  0  0  0  0  0  0  0  0  0  0
   -4.1613   15.9700   -7.1989 C   0  0  0  0  0  0  0  0  0  0  0  0
   -2.7497   16.3158   -7.6943 C   0  0  0  0  0  0  0  0  0  0  0  0
   -2.1309   17.4357   -6.8429 C   0  0  0  0  0  0  0  0  0  0  0  0
   -1.8554   15.0757   -7.7546 C   0  0  0  0  0  0  0  0  0  0  0  0
   -4.7326   12.1433   -5.5174 N   0  0  0  0  0  0  0  0  0  0  0  0
   -3.4874   11.6117   -5.7145 C   0  0  0  0  0  0  0  0  0  0  0  0
   -3.3564   10.6042   -6.4005 O   0  0  0  0  0  0  0  0  0  0  0  0
   -5.5068   11.6605   -5.9547 H   0  0  0  0  0  0  0  0  0  0  0  0
   -4.9370   12.9794   -4.9952 H   0  0  0  0  0  0  0  0  0  0  0  0
  3  5  1  0  0  0
  4  2  2  0  0  0
  5  6  2  0  0  0
  6  8  1  0  0  0
  7 15  1  0  0  0
  7  1  2  0  0  0
 16 15  1  0  0  0
 16 17  1  0  0  0
 17 18  1  0  0  0
 18 19  1  0  0  0
 19 20  1  0  0  0
 19 21  1  0  0  0
 20 15  1  0  0  0
  9  3  1  0  0  0
  9 10  2  0  0  0
 11 12  2  0  0  0
 12 23  1  0  0  0
 13  8  2  0  0  0
 23 22  1  0  0  0
  4  1  1  0  0  0
  5  2  1  0  0  0
  6  7  1  0  0  0
  8  9  1  0  0  0
 10 11  1  0  0  0
 12 13  1  0  0  0
 23 24  2  0  0  0
  3 14  1  0  0  0
 22 25  1  0  0  0
 22 26  1  0  0  0
M  END
> <minimizedAffinity>
-8.83707

$$$$
CHEMBL3719102


 26 29  0  0  0  0  0  0  0  0999 V2000
   -2.3718   18.9167   -6.3718 N   0  0  0  0  0  0  0  0  0  0  0  0
   -0.7107   20.3991   -5.4334 N   0  0  0  0  0  0  0  0  0  0  0  0
    1.0095   19.2546   -4.2329 N   0  0  0  0  0  0  0  0  0  0  0  0
   -1.8366   20.1235   -6.1082 C   0  0  0  0  0  0  0  0  0  0  0  0
   -0.1401   19.2789   -4.9701 C   0  0  0  0  0  0  0  0  0  0  0  0
   -0.5812   17.9762   -5.1444 C   0  0  0  0  0  0  0  0  0  0  0  0
   -1.7365   17.7930   -5.9418 C   0  0  0  0  0  0  0  0  0  0  0  0
    0.3115   17.1471   -4.3836 C   0  0  0  0  0  0  0  0  0  0  0  0
    1.3187   17.9656   -3.8677 C   0  0  0  0  0  0  0  0  0  0  0  0
    2.3889   17.4689   -3.1160 C   0  0  0  0  0  0  0  0  0  0  0  0
    2.4336   16.0878   -2.8869 C   0  0  0  0  0  0  0  0  0  0  0  0
    1.4299   15.2342   -3.3580 C   0  0  0  0  0  0  0  0  0  0  0  0
    0.3514   15.7690   -4.0748 C   0  0  0  0  0  0  0  0  0  0  0  0
    1.5325   20.0807   -3.9850 H   0  0  0  0  0  0  0  0  0  0  0  0
   -2.2532   16.5590   -6.2952 N   0  0  0  0  0  0  0  0  0  0  0  0
   -2.4211   16.2086   -7.6999 C   0  0  0  0  0  0  0  0  0  0  0  0
   -3.8974   16.1001   -8.0672 C   0  0  0  0  0  0  0  0  0  0  0  0
   -4.6365   15.1762   -7.1036 C   0  0  0  0  0  0  0  0  0  0  0  0
   -4.4608   15.6152   -5.6427 C   0  0  0  0  0  0  0  0  0  0  0  0
   -2.9722   15.7752   -5.2956 C   0  0  0  0  0  0  0  0  0  0  0  0
   -5.2642   16.8806   -5.3352 C   0  0  0  0  0  0  0  0  0  0  0  0
    0.5092   12.9521   -3.3983 N   0  0  0  0  0  0  0  0  0  0  0  0
    1.5565   13.7735   -3.0816 C   0  0  0  0  0  0  0  0  0  0  0  0
    2.5800   13.2988   -2.6019 O   0  0  0  0  0  0  0  0  0  0  0  0
    0.6324   11.9657   -3.2092 H   0  0  0  0  0  0  0  0  0  0  0  0
   -0.3575   13.2433   -3.8196 H   0  0  0  0  0  0  0  0  0  0  0  0
  3  5  1  0  0  0
  4  2  2  0  0  0
  5  6  2  0  0  0
  6  8  1  0  0  0
  7 15  1  0  0  0
  7  1  2  0  0  0
 16 15  1  0  0  0
 16 17  1  0  0  0
 17 18  1  0  0  0
 18 19  1  0  0  0
 19 20  1  0  0  0
 19 21  1  0  0  0
 20 15  1  0  0  0
  9  3  1  0  0  0
  9 10  2  0  0  0
 11 12  2  0  0  0
 12 23  1  0  0  0
 13  8  2  0  0  0
 23 22  1  0  0  0
  4  1  1  0  0  0
  5  2  1  0  0  0
  6  7  1  0  0  0
  8  9  1  0  0  0
 10 11  1  0  0  0
 12 13  1  0  0  0
 23 24  2  0  0  0
  3 14  1  0  0  0
 22 25  1  0  0  0
 22 26  1  0  0  0
M  END
> <minimizedAffinity>
-8.51517

$$$$
CHEMBL3719102


 26 29  0  0  0  0  0  0  0  0999 V2000
   -1.6261   18.9691   -5.5835 N   0  0  0  0  0  0  0  0  0  0  0  0
    0.6291   19.3398   -4.8000 N   0  0  0  0  0  0  0  0  0  0  0  0
    1.7097   17.3458   -4.0473 N   0  0  0  0  0  0  0  0  0  0  0  0
   -0.5555   19.7315   -5.2921 C   0  0  0  0  0  0  0  0  0  0  0  0
    0.6409   18.0209   -4.5647 C   0  0  0  0  0  0  0  0  0  0  0  0
   -0.3840   17.1162   -4.7953 C   0  0  0  0  0  0  0  0  0  0  0  0
   -1.5630   17.6235   -5.3925 C   0  0  0  0  0  0  0  0  0  0  0  0
    0.0790   15.8521   -4.2947 C   0  0  0  0  0  0  0  0  0  0  0  0
    1.4025   16.0161   -3.8800 C   0  0  0  0  0  0  0  0  0  0  0  0
    2.1780   14.9626   -3.3843 C   0  0  0  0  0  0  0  0  0  0  0  0
    1.5819   13.6970   -3.3135 C   0  0  0  0  0  0  0  0  0  0  0  0
    0.2494   13.4929   -3.6886 C   0  0  0  0  0  0  0  0  0  0  0  0
   -0.5115   14.5774   -4.1447 C   0  0  0  0  0  0  0  0  0  0  0  0
    2.5862   17.7844   -3.8093 H   0  0  0  0  0  0  0  0  0  0  0  0
   -2.6399   16.8447   -5.7779 N   0  0  0  0  0  0  0  0  0  0  0  0
   -2.6460   16.1948   -7.0825 C   0  0  0  0  0  0  0  0  0  0  0  0
   -3.7102   16.7988   -7.9930 C   0  0  0  0  0  0  0  0  0  0  0  0
   -5.0718   16.8238   -7.3047 C   0  0  0  0  0  0  0  0  0  0  0  0
   -5.0173   17.5561   -5.9562 C   0  0  0  0  0  0  0  0  0  0  0  0
   -3.9065   16.9780   -5.0650 C   0  0  0  0  0  0  0  0  0  0  0  0
   -4.8789   19.0684   -6.1426 C   0  0  0  0  0  0  0  0  0  0  0  0
    0.5588   11.0545   -3.5630 N   0  0  0  0  0  0  0  0  0  0  0  0
   -0.3083   12.1123   -3.5944 C   0  0  0  0  0  0  0  0  0  0  0  0
   -1.5158   11.9129   -3.5224 O   0  0  0  0  0  0  0  0  0  0  0  0
    0.1483   10.1329   -3.4866 H   0  0  0  0  0  0  0  0  0  0  0  0
    1.5632   11.1190   -3.5883 H   0  0  0  0  0  0  0  0  0  0  0  0
  3  5  1  0  0  0
  4  2  2  0  0  0
  5  6  2  0  0  0
  6  8  1  0  0  0
  7 15  1  0  0  0
  7  1  2  0  0  0
 16 15  1  0  0  0
 16 17  1  0  0  0
 17 18  1  0  0  0
 18 19  1  0  0  0
 19 20  1  0  0  0
 19 21  1  0  0  0
 20 15  1  0  0  0
  9  3  1  0  0  0
  9 10  2  0  0  0
 11 12  2  0  0  0
 12 23  1  0  0  0
 13  8  2  0  0  0
 23 22  1  0  0  0
  4  1  1  0  0  0
  5  2  1  0  0  0
  6  7  1  0  0  0
  8  9  1  0  0  0
 10 11  1  0  0  0
 12 13  1  0  0  0
 23 24  2  0  0  0
  3 14  1  0  0  0
 22 25  1  0  0  0
 22 26  1  0  0  0
M  END
> <minimizedAffinity>
-8.37796

$$$$
CHEMBL3719102


 26 29  0  0  0  0  0  0  0  0999 V2000
   -2.2498   19.5483   -6.0164 N   0  0  0  0  0  0  0  0  0  0  0  0
   -0.0056   19.8334   -5.1679 N   0  0  0  0  0  0  0  0  0  0  0  0
    0.9810   17.7978   -4.3978 N   0  0  0  0  0  0  0  0  0  0  0  0
   -1.1611   20.2701   -5.6904 C   0  0  0  0  0  0  0  0  0  0  0  0
   -0.0479   18.5137   -4.9407 C   0  0  0  0  0  0  0  0  0  0  0  0
   -1.0976   17.6477   -5.2055 C   0  0  0  0  0  0  0  0  0  0  0  0
   -2.2404   18.2003   -5.8322 C   0  0  0  0  0  0  0  0  0  0  0  0
   -0.6945   16.3651   -4.7000 C   0  0  0  0  0  0  0  0  0  0  0  0
    0.6218   16.4791   -4.2475 C   0  0  0  0  0  0  0  0  0  0  0  0
    1.3447   15.3958   -3.7370 C   0  0  0  0  0  0  0  0  0  0  0  0
    0.7018   14.1521   -3.6908 C   0  0  0  0  0  0  0  0  0  0  0  0
   -0.6261   13.9982   -4.1043 C   0  0  0  0  0  0  0  0  0  0  0  0
   -1.3345   15.1118   -4.5746 C   0  0  0  0  0  0  0  0  0  0  0  0
    1.8657   18.2032   -4.1327 H   0  0  0  0  0  0  0  0  0  0  0  0
   -3.3333   17.4629   -6.2525 N   0  0  0  0  0  0  0  0  0  0  0  0
   -4.1102   16.6898   -5.2917 C   0  0  0  0  0  0  0  0  0  0  0  0
   -3.9472   15.1922   -5.5305 C   0  0  0  0  0  0  0  0  0  0  0  0
   -4.2270   14.8348   -6.9873 C   0  0  0  0  0  0  0  0  0  0  0  0
   -3.3527   15.6472   -7.9533 C   0  0  0  0  0  0  0  0  0  0  0  0
   -3.4802   17.1526   -7.6711 C   0  0  0  0  0  0  0  0  0  0  0  0
   -1.8971   15.1764   -7.9258 C   0  0  0  0  0  0  0  0  0  0  0  0
   -0.4214   11.5656   -3.7915 N   0  0  0  0  0  0  0  0  0  0  0  0
   -1.2354   12.6381   -4.0343 C   0  0  0  0  0  0  0  0  0  0  0  0
   -2.4425   12.4695   -4.1665 O   0  0  0  0  0  0  0  0  0  0  0  0
   -0.8682   10.6593   -3.7383 H   0  0  0  0  0  0  0  0  0  0  0  0
    0.5733   11.6067   -3.6420 H   0  0  0  0  0  0  0  0  0  0  0  0
  3  5  1  0  0  0
  4  2  2  0  0  0
  5  6  2  0  0  0
  6  8  1  0  0  0
  7 15  1  0  0  0
  7  1  2  0  0  0
 16 15  1  0  0  0
 16 17  1  0  0  0
 17 18  1  0  0  0
 18 19  1  0  0  0
 19 20  1  0  0  0
 19 21  1  0  0  0
 20 15  1  0  0  0
  9  3  1  0  0  0
  9 10  2  0  0  0
 11 12  2  0  0  0
 12 23  1  0  0  0
 13  8  2  0  0  0
 23 22  1  0  0  0
  4  1  1  0  0  0
  5  2  1  0  0  0
  6  7  1  0  0  0
  8  9  1  0  0  0
 10 11  1  0  0  0
 12 13  1  0  0  0
 23 24  2  0  0  0
  3 14  1  0  0  0
 22 25  1  0  0  0
 22 26  1  0  0  0
M  END
> <minimizedAffinity>
-8.22880

$$$$
CHEMBL3719102


 26 29  0  0  0  0  0  0  0  0999 V2000
   -0.9506   16.5469   -5.3003 N   0  0  0  0  0  0  0  0  0  0  0  0
   -1.2147   18.6080   -6.5330 N   0  0  0  0  0  0  0  0  0  0  0  0
    0.1657   20.3810   -5.7198 N   0  0  0  0  0  0  0  0  0  0  0  0
   -1.4951   17.3266   -6.2532 C   0  0  0  0  0  0  0  0  0  0  0  0
   -0.3005   19.0976   -5.6846 C   0  0  0  0  0  0  0  0  0  0  0  0
    0.3318   18.4256   -4.6499 C   0  0  0  0  0  0  0  0  0  0  0  0
    0.0209   17.0534   -4.4936 C   0  0  0  0  0  0  0  0  0  0  0  0
    1.1464   19.4004   -3.9796 C   0  0  0  0  0  0  0  0  0  0  0  0
    1.0598   20.5953   -4.6974 C   0  0  0  0  0  0  0  0  0  0  0  0
    1.7764   21.7444   -4.3466 C   0  0  0  0  0  0  0  0  0  0  0  0
    2.6135   21.6688   -3.2260 C   0  0  0  0  0  0  0  0  0  0  0  0
    2.7075   20.5020   -2.4593 C   0  0  0  0  0  0  0  0  0  0  0  0
    1.9467   19.3807   -2.8155 C   0  0  0  0  0  0  0  0  0  0  0  0
   -0.1325   21.0660   -6.3974 H   0  0  0  0  0  0  0  0  0  0  0  0
    0.6307   16.2144   -3.5777 N   0  0  0  0  0  0  0  0  0  0  0  0
    2.0744   16.0171   -3.6109 C   0  0  0  0  0  0  0  0  0  0  0  0
    2.4255   14.5929   -4.0284 C   0  0  0  0  0  0  0  0  0  0  0  0
    1.6780   13.5709   -3.1769 C   0  0  0  0  0  0  0  0  0  0  0  0
    0.1600   13.7990   -3.2114 C   0  0  0  0  0  0  0  0  0  0  0  0
   -0.1828   15.2511   -2.8425 C   0  0  0  0  0  0  0  0  0  0  0  0
   -0.4400   13.3888   -4.5578 C   0  0  0  0  0  0  0  0  0  0  0  0
    4.4550   19.4223   -1.1037 N   0  0  0  0  0  0  0  0  0  0  0  0
    3.6306   20.4986   -1.2871 C   0  0  0  0  0  0  0  0  0  0  0  0
    3.6786   21.4431   -0.5071 O   0  0  0  0  0  0  0  0  0  0  0  0
    5.0768   19.4572   -0.3062 H   0  0  0  0  0  0  0  0  0  0  0  0
    4.5078   18.6155   -1.7035 H   0  0  0  0  0  0  0  0  0  0  0  0
  3  5  1  0  0  0
  4  2  2  0  0  0
  5  6  2  0  0  0
  6  8  1  0  0  0
  7 15  1  0  0  0
  7  1  2  0  0  0
 16 15  1  0  0  0
 16 17  1  0  0  0
 17 18  1  0  0  0
 18 19  1  0  0  0
 19 20  1  0  0  0
 19 21  1  0  0  0
 20 15  1  0  0  0
  9  3  1  0  0  0
  9 10  2  0  0  0
 11 12  2  0  0  0
 12 23  1  0  0  0
 13  8  2  0  0  0
 23 22  1  0  0  0
  4  1  1  0  0  0
  5  2  1  0  0  0
  6  7  1  0  0  0
  8  9  1  0  0  0
 10 11  1  0  0  0
 12 13  1  0  0  0
 23 24  2  0  0  0
  3 14  1  0  0  0
 22 25  1  0  0  0
 22 26  1  0  0  0
M  END
> <minimizedAffinity>
-8.03260

$$$$
CHEMBL3719102


 26 29  0  0  0  0  0  0  0  0999 V2000
   -0.5983   12.8238   -3.9730 N   0  0  0  0  0  0  0  0  0  0  0  0
   -2.1611   11.8175   -5.5164 N   0  0  0  0  0  0  0  0  0  0  0  0
   -3.6038   13.4034   -6.5717 N   0  0  0  0  0  0  0  0  0  0  0  0
   -1.1720   11.7865   -4.6111 C   0  0  0  0  0  0  0  0  0  0  0  0
   -2.5928   13.0700   -5.7158 C   0  0  0  0  0  0  0  0  0  0  0  0
   -2.1156   14.2286   -5.1225 C   0  0  0  0  0  0  0  0  0  0  0  0
   -1.0154   14.0905   -4.2424 C   0  0  0  0  0  0  0  0  0  0  0  0
   -2.9608   15.2928   -5.5876 C   0  0  0  0  0  0  0  0  0  0  0  0
   -3.8462   14.7561   -6.5249 C   0  0  0  0  0  0  0  0  0  0  0  0
   -4.7798   15.5336   -7.2182 C   0  0  0  0  0  0  0  0  0  0  0  0
   -4.8072   16.9077   -6.9472 C   0  0  0  0  0  0  0  0  0  0  0  0
   -3.9602   17.4833   -5.9936 C   0  0  0  0  0  0  0  0  0  0  0  0
   -3.0630   16.6699   -5.2890 C   0  0  0  0  0  0  0  0  0  0  0  0
   -4.1033   12.7327   -7.1355 H   0  0  0  0  0  0  0  0  0  0  0  0
   -0.3574   15.1502   -3.6434 N   0  0  0  0  0  0  0  0  0  0  0  0
   -0.1974   16.4117   -4.3556 C   0  0  0  0  0  0  0  0  0  0  0  0
    1.2661   16.6667   -4.7009 C   0  0  0  0  0  0  0  0  0  0  0  0
    2.1529   16.5332   -3.4663 C   0  0  0  0  0  0  0  0  0  0  0  0
    1.9758   15.1712   -2.7799 C   0  0  0  0  0  0  0  0  0  0  0  0
    0.4927   14.8970   -2.4843 C   0  0  0  0  0  0  0  0  0  0  0  0
    2.6203   14.0449   -3.5906 C   0  0  0  0  0  0  0  0  0  0  0  0
   -2.8977   19.6400   -5.4676 N   0  0  0  0  0  0  0  0  0  0  0  0
   -4.0432   18.9563   -5.7714 C   0  0  0  0  0  0  0  0  0  0  0  0
   -5.1041   19.5612   -5.8775 O   0  0  0  0  0  0  0  0  0  0  0  0
   -2.9870   20.6392   -5.3350 H   0  0  0  0  0  0  0  0  0  0  0  0
   -1.9786   19.2372   -5.3866 H   0  0  0  0  0  0  0  0  0  0  0  0
  3  5  1  0  0  0
  4  2  2  0  0  0
  5  6  2  0  0  0
  6  8  1  0  0  0
  7 15  1  0  0  0
  7  1  2  0  0  0
 16 15  1  0  0  0
 16 17  1  0  0  0
 17 18  1  0  0  0
 18 19  1  0  0  0
 19 20  1  0  0  0
 19 21  1  0  0  0
 20 15  1  0  0  0
  9  3  1  0  0  0
  9 10  2  0  0  0
 11 12  2  0  0  0
 12 23  1  0  0  0
 13  8  2  0  0  0
 23 22  1  0  0  0
  4  1  1  0  0  0
  5  2  1  0  0  0
  6  7  1  0  0  0
  8  9  1  0  0  0
 10 11  1  0  0  0
 12 13  1  0  0  0
 23 24  2  0  0  0
  3 14  1  0  0  0
 22 25  1  0  0  0
 22 26  1  0  0  0
M  END
> <minimizedAffinity>
-7.99452

$$$$
CHEMBL3719102


 26 29  0  0  0  0  0  0  0  0999 V2000
   -2.5812   18.7314   -6.9240 N   0  0  0  0  0  0  0  0  0  0  0  0
   -3.1986   20.8436   -7.9216 N   0  0  0  0  0  0  0  0  0  0  0  0
   -5.4509   20.8919   -8.7183 N   0  0  0  0  0  0  0  0  0  0  0  0
   -2.3455   19.9924   -7.3328 C   0  0  0  0  0  0  0  0  0  0  0  0
   -4.3918   20.2683   -8.1224 C   0  0  0  0  0  0  0  0  0  0  0  0
   -4.7745   18.9820   -7.7746 C   0  0  0  0  0  0  0  0  0  0  0  0
   -3.8211   18.1951   -7.0847 C   0  0  0  0  0  0  0  0  0  0  0  0
   -6.1071   18.8107   -8.2826 C   0  0  0  0  0  0  0  0  0  0  0  0
   -6.5186   20.0316   -8.8217 C   0  0  0  0  0  0  0  0  0  0  0  0
   -7.7945   20.2318   -9.3590 C   0  0  0  0  0  0  0  0  0  0  0  0
   -8.6821   19.1483   -9.3414 C   0  0  0  0  0  0  0  0  0  0  0  0
   -8.3023   17.8984   -8.8398 C   0  0  0  0  0  0  0  0  0  0  0  0
   -7.0040   17.7208   -8.3441 C   0  0  0  0  0  0  0  0  0  0  0  0
   -5.4258   21.8449   -9.0475 H   0  0  0  0  0  0  0  0  0  0  0  0
   -4.0703   16.9304   -6.5814 N   0  0  0  0  0  0  0  0  0  0  0  0
   -3.7380   16.6124   -5.1984 C   0  0  0  0  0  0  0  0  0  0  0  0
   -2.5954   15.6048   -5.1249 C   0  0  0  0  0  0  0  0  0  0  0  0
   -2.8846   14.3826   -5.9915 C   0  0  0  0  0  0  0  0  0  0  0  0
   -3.1863   14.7715   -7.4459 C   0  0  0  0  0  0  0  0  0  0  0  0
   -4.3012   15.8275   -7.5091 C   0  0  0  0  0  0  0  0  0  0  0  0
   -1.9225   15.2222   -8.1814 C   0  0  0  0  0  0  0  0  0  0  0  0
  -10.4529   16.9585   -9.5807 N   0  0  0  0  0  0  0  0  0  0  0  0
   -9.3099   16.7981   -8.8461 C   0  0  0  0  0  0  0  0  0  0  0  0
   -9.1230   15.7551   -8.2296 O   0  0  0  0  0  0  0  0  0  0  0  0
  -11.1095   16.1887   -9.5730 H   0  0  0  0  0  0  0  0  0  0  0  0
  -10.6821   17.7637  -10.1398 H   0  0  0  0  0  0  0  0  0  0  0  0
  3  5  1  0  0  0
  4  2  2  0  0  0
  5  6  2  0  0  0
  6  8  1  0  0  0
  7 15  1  0  0  0
  7  1  2  0  0  0
 16 15  1  0  0  0
 16 17  1  0  0  0
 17 18  1  0  0  0
 18 19  1  0  0  0
 19 20  1  0  0  0
 19 21  1  0  0  0
 20 15  1  0  0  0
  9  3  1  0  0  0
  9 10  2  0  0  0
 11 12  2  0  0  0
 12 23  1  0  0  0
 13  8  2  0  0  0
 23 22  1  0  0  0
  4  1  1  0  0  0
  5  2  1  0  0  0
  6  7  1  0  0  0
  8  9  1  0  0  0
 10 11  1  0  0  0
 12 13  1  0  0  0
 23 24  2  0  0  0
  3 14  1  0  0  0
 22 25  1  0  0  0
 22 26  1  0  0  0
M  END
> <minimizedAffinity>
-7.68331

$$$$
CHEMBL3715588


 25 28  0  0  0  0  0  0  0  0999 V2000
    0.0120   18.0324   -4.0612 N   0  0  0  0  0  0  0  0  0  0  0  0
    1.6738   16.6206   -3.0177 N   0  0  0  0  0  0  0  0  0  0  0  0
    1.1695   14.2884   -3.1817 N   0  0  0  0  0  0  0  0  0  0  0  0
    1.1627   17.8006   -3.4008 C   0  0  0  0  0  0  0  0  0  0  0  0
    0.8926   15.6061   -3.4129 C   0  0  0  0  0  0  0  0  0  0  0  0
   -0.3048   15.6890   -4.1056 C   0  0  0  0  0  0  0  0  0  0  0  0
   -0.7864   16.9841   -4.4007 C   0  0  0  0  0  0  0  0  0  0  0  0
   -0.7146   14.3403   -4.3647 C   0  0  0  0  0  0  0  0  0  0  0  0
    0.2012   13.4890   -3.7436 C   0  0  0  0  0  0  0  0  0  0  0  0
    0.0746   12.0961   -3.7663 C   0  0  0  0  0  0  0  0  0  0  0  0
   -1.0292   11.5575   -4.4411 C   0  0  0  0  0  0  0  0  0  0  0  0
   -1.9567   12.3737   -5.0986 C   0  0  0  0  0  0  0  0  0  0  0  0
   -1.7796   13.7627   -5.0889 C   0  0  0  0  0  0  0  0  0  0  0  0
    1.9862   13.9671   -2.6845 H   0  0  0  0  0  0  0  0  0  0  0  0
   -2.0055   17.2367   -5.0157 N   0  0  0  0  0  0  0  0  0  0  0  0
   -2.0490   17.3569   -6.4708 C   0  0  0  0  0  0  0  0  0  0  0  0
   -2.9446   16.2871   -7.0909 C   0  0  0  0  0  0  0  0  0  0  0  0
   -4.3294   16.2027   -6.4417 C   0  0  0  0  0  0  0  0  0  0  0  0
   -4.4409   17.0323   -5.1649 C   0  0  0  0  0  0  0  0  0  0  0  0
   -3.2057   16.8289   -4.2929 C   0  0  0  0  0  0  0  0  0  0  0  0
   -4.3271   12.3524   -5.7583 N   0  0  0  0  0  0  0  0  0  0  0  0
   -3.1111   11.7259   -5.7860 C   0  0  0  0  0  0  0  0  0  0  0  0
   -2.9950   10.6433   -6.3499 O   0  0  0  0  0  0  0  0  0  0  0  0
   -5.0921   11.8821   -6.2244 H   0  0  0  0  0  0  0  0  0  0  0  0
   -4.5256   13.2259   -5.2983 H   0  0  0  0  0  0  0  0  0  0  0  0
  3  5  1  0  0  0
  4  2  2  0  0  0
  5  6  2  0  0  0
  6  8  1  0  0  0
  7 15  1  0  0  0
  7  1  2  0  0  0
 16 15  1  0  0  0
 16 17  1  0  0  0
 17 18  1  0  0  0
 18 19  1  0  0  0
 19 20  1  0  0  0
 20 15  1  0  0  0
  9  3  1  0  0  0
  9 10  2  0  0  0
 11 12  2  0  0  0
 12 22  1  0  0  0
 13  8  2  0  0  0
 22 21  1  0  0  0
  4  1  1  0  0  0
  5  2  1  0  0  0
  6  7  1  0  0  0
  8  9  1  0  0  0
 10 11  1  0  0  0
 12 13  1  0  0  0
 22 23  2  0  0  0
  3 14  1  0  0  0
 21 24  1  0  0  0
 21 25  1  0  0  0
M  END
> <minimizedAffinity>
-9.37467

$$$$
CHEMBL3715588


 25 28  0  0  0  0  0  0  0  0999 V2000
   -3.3947   13.8041   -5.7918 N   0  0  0  0  0  0  0  0  0  0  0  0
   -2.1983   11.8934   -4.9192 N   0  0  0  0  0  0  0  0  0  0  0  0
   -0.1262   12.4727   -3.8746 N   0  0  0  0  0  0  0  0  0  0  0  0
   -3.2332   12.4934   -5.5269 C   0  0  0  0  0  0  0  0  0  0  0  0
   -1.2793   12.7898   -4.5351 C   0  0  0  0  0  0  0  0  0  0  0  0
   -1.3139   14.1620   -4.7258 C   0  0  0  0  0  0  0  0  0  0  0  0
   -2.4179   14.6827   -5.4374 C   0  0  0  0  0  0  0  0  0  0  0  0
   -0.1533   14.6892   -4.0707 C   0  0  0  0  0  0  0  0  0  0  0  0
    0.5887   13.6115   -3.5838 C   0  0  0  0  0  0  0  0  0  0  0  0
    1.8098   13.7722   -2.9208 C   0  0  0  0  0  0  0  0  0  0  0  0
    2.2902   15.0784   -2.7568 C   0  0  0  0  0  0  0  0  0  0  0  0
    1.5659   16.1882   -3.2069 C   0  0  0  0  0  0  0  0  0  0  0  0
    0.3284   15.9944   -3.8328 C   0  0  0  0  0  0  0  0  0  0  0  0
    0.1353   11.5309   -3.6258 H   0  0  0  0  0  0  0  0  0  0  0  0
   -2.5587   16.0212   -5.7795 N   0  0  0  0  0  0  0  0  0  0  0  0
   -2.5859   16.3878   -7.1932 C   0  0  0  0  0  0  0  0  0  0  0  0
   -3.9083   17.0509   -7.5707 C   0  0  0  0  0  0  0  0  0  0  0  0
   -4.3034   18.1961   -6.6333 C   0  0  0  0  0  0  0  0  0  0  0  0
   -3.4231   18.2784   -5.3886 C   0  0  0  0  0  0  0  0  0  0  0  0
   -3.2076   16.8872   -4.8007 C   0  0  0  0  0  0  0  0  0  0  0  0
    3.4271   17.6473   -2.5279 N   0  0  0  0  0  0  0  0  0  0  0  0
    2.1487   17.5462   -3.0047 C   0  0  0  0  0  0  0  0  0  0  0  0
    1.5012   18.5617   -3.2349 O   0  0  0  0  0  0  0  0  0  0  0  0
    3.7896   18.5821   -2.3916 H   0  0  0  0  0  0  0  0  0  0  0  0
    4.0244   16.8739   -2.2843 H   0  0  0  0  0  0  0  0  0  0  0  0
  3  5  1  0  0  0
  4  2  2  0  0  0
  5  6  2  0  0  0
  6  8  1  0  0  0
  7 15  1  0  0  0
  7  1  2  0  0  0
 16 15  1  0  0  0
 16 17  1  0  0  0
 17 18  1  0  0  0
 18 19  1  0  0  0
 19 20  1  0  0  0
 20 15  1  0  0  0
  9  3  1  0  0  0
  9 10  2  0  0  0
 11 12  2  0  0  0
 12 22  1  0  0  0
 13  8  2  0  0  0
 22 21  1  0  0  0
  4  1  1  0  0  0
  5  2  1  0  0  0
  6  7  1  0  0  0
  8  9  1  0  0  0
 10 11  1  0  0  0
 12 13  1  0  0  0
 22 23  2  0  0  0
  3 14  1  0  0  0
 21 24  1  0  0  0
 21 25  1  0  0  0
M  END
> <minimizedAffinity>
-9.35390

$$$$
CHEMBL3715588


 25 28  0  0  0  0  0  0  0  0999 V2000
   -4.3622   13.4945   -6.0708 N   0  0  0  0  0  0  0  0  0  0  0  0
   -3.2707   11.4721   -5.3208 N   0  0  0  0  0  0  0  0  0  0  0  0
   -1.1386   11.8678   -4.3118 N   0  0  0  0  0  0  0  0  0  0  0  0
   -4.2797   12.1652   -5.8703 C   0  0  0  0  0  0  0  0  0  0  0  0
   -2.2854   12.2888   -4.9234 C   0  0  0  0  0  0  0  0  0  0  0  0
   -2.2353   13.6679   -5.0508 C   0  0  0  0  0  0  0  0  0  0  0  0
   -3.3212   14.2911   -5.7055 C   0  0  0  0  0  0  0  0  0  0  0  0
   -1.0260   14.0883   -4.4066 C   0  0  0  0  0  0  0  0  0  0  0  0
   -0.3435   12.9435   -3.9908 C   0  0  0  0  0  0  0  0  0  0  0  0
    0.9024   12.9944   -3.3569 C   0  0  0  0  0  0  0  0  0  0  0  0
    1.4712   14.2580   -3.1481 C   0  0  0  0  0  0  0  0  0  0  0  0
    0.8093   15.4318   -3.5262 C   0  0  0  0  0  0  0  0  0  0  0  0
   -0.4541   15.3473   -4.1240 C   0  0  0  0  0  0  0  0  0  0  0  0
   -0.9327   10.9005   -4.1137 H   0  0  0  0  0  0  0  0  0  0  0  0
   -3.3831   15.6504   -5.9825 N   0  0  0  0  0  0  0  0  0  0  0  0
   -3.8468   16.5615   -4.9391 C   0  0  0  0  0  0  0  0  0  0  0  0
   -2.7663   17.5723   -4.5626 C   0  0  0  0  0  0  0  0  0  0  0  0
   -2.1544   18.2865   -5.7717 C   0  0  0  0  0  0  0  0  0  0  0  0
   -2.5775   17.6724   -7.1039 C   0  0  0  0  0  0  0  0  0  0  0  0
   -2.5014   16.1504   -7.0321 C   0  0  0  0  0  0  0  0  0  0  0  0
    2.8054   16.7378   -2.9226 N   0  0  0  0  0  0  0  0  0  0  0  0
    1.4847   16.7387   -3.2797 C   0  0  0  0  0  0  0  0  0  0  0  0
    0.8775   17.8002   -3.3693 O   0  0  0  0  0  0  0  0  0  0  0  0
    3.2315   17.6395   -2.7520 H   0  0  0  0  0  0  0  0  0  0  0  0
    3.3777   15.9187   -2.7967 H   0  0  0  0  0  0  0  0  0  0  0  0
  3  5  1  0  0  0
  4  2  2  0  0  0
  5  6  2  0  0  0
  6  8  1  0  0  0
  7 15  1  0  0  0
  7  1  2  0  0  0
 16 15  1  0  0  0
 16 17  1  0  0  0
 17 18  1  0  0  0
 18 19  1  0  0  0
 19 20  1  0  0  0
 20 15  1  0  0  0
  9  3  1  0  0  0
  9 10  2  0  0  0
 11 12  2  0  0  0
 12 22  1  0  0  0
 13  8  2  0  0  0
 22 21  1  0  0  0
  4  1  1  0  0  0
  5  2  1  0  0  0
  6  7  1  0  0  0
  8  9  1  0  0  0
 10 11  1  0  0  0
 12 13  1  0  0  0
 22 23  2  0  0  0
  3 14  1  0  0  0
 21 24  1  0  0  0
 21 25  1  0  0  0
M  END
> <minimizedAffinity>
-9.17325

$$$$
CHEMBL3715588


 25 28  0  0  0  0  0  0  0  0999 V2000
   -1.2118   19.4293   -5.8538 N   0  0  0  0  0  0  0  0  0  0  0  0
    0.9138   19.5747   -4.7116 N   0  0  0  0  0  0  0  0  0  0  0  0
    1.6064   17.5030   -3.7374 N   0  0  0  0  0  0  0  0  0  0  0  0
   -0.1010   20.0675   -5.4380 C   0  0  0  0  0  0  0  0  0  0  0  0
    0.7277   18.2750   -4.4434 C   0  0  0  0  0  0  0  0  0  0  0  0
   -0.3513   17.4876   -4.8127 C   0  0  0  0  0  0  0  0  0  0  0  0
   -1.3971   18.1235   -5.5185 C   0  0  0  0  0  0  0  0  0  0  0  0
   -0.0521   16.1591   -4.3661 C   0  0  0  0  0  0  0  0  0  0  0  0
    1.1543   16.2058   -3.6650 C   0  0  0  0  0  0  0  0  0  0  0  0
    1.7196   15.0800   -3.0570 C   0  0  0  0  0  0  0  0  0  0  0  0
    1.0239   13.8684   -3.1647 C   0  0  0  0  0  0  0  0  0  0  0  0
   -0.1753   13.7722   -3.8799 C   0  0  0  0  0  0  0  0  0  0  0  0
   -0.6944   14.9104   -4.5090 C   0  0  0  0  0  0  0  0  0  0  0  0
    2.4704   17.8504   -3.3500 H   0  0  0  0  0  0  0  0  0  0  0  0
   -2.5784   17.4939   -5.8880 N   0  0  0  0  0  0  0  0  0  0  0  0
   -2.6268   16.7775   -7.1600 C   0  0  0  0  0  0  0  0  0  0  0  0
   -2.9191   15.2935   -6.9521 C   0  0  0  0  0  0  0  0  0  0  0  0
   -4.1338   15.0331   -6.0560 C   0  0  0  0  0  0  0  0  0  0  0  0
   -4.6493   16.2952   -5.3688 C   0  0  0  0  0  0  0  0  0  0  0  0
   -3.4840   17.1069   -4.8113 C   0  0  0  0  0  0  0  0  0  0  0  0
   -0.1130   11.3139   -3.7959 N   0  0  0  0  0  0  0  0  0  0  0  0
   -0.8622   12.4495   -3.9401 C   0  0  0  0  0  0  0  0  0  0  0  0
   -2.0695   12.3634   -4.1363 O   0  0  0  0  0  0  0  0  0  0  0  0
   -0.6068   10.4325   -3.8523 H   0  0  0  0  0  0  0  0  0  0  0  0
    0.8844   11.2834   -3.6599 H   0  0  0  0  0  0  0  0  0  0  0  0
  3  5  1  0  0  0
  4  2  2  0  0  0
  5  6  2  0  0  0
  6  8  1  0  0  0
  7 15  1  0  0  0
  7  1  2  0  0  0
 16 15  1  0  0  0
 16 17  1  0  0  0
 17 18  1  0  0  0
 18 19  1  0  0  0
 19 20  1  0  0  0
 20 15  1  0  0  0
  9  3  1  0  0  0
  9 10  2  0  0  0
 11 12  2  0  0  0
 12 22  1  0  0  0
 13  8  2  0  0  0
 22 21  1  0  0  0
  4  1  1  0  0  0
  5  2  1  0  0  0
  6  7  1  0  0  0
  8  9  1  0  0  0
 10 11  1  0  0  0
 12 13  1  0  0  0
 22 23  2  0  0  0
  3 14  1  0  0  0
 21 24  1  0  0  0
 21 25  1  0  0  0
M  END
> <minimizedAffinity>
-9.03006

$$$$
CHEMBL3715588


 25 28  0  0  0  0  0  0  0  0999 V2000
   -1.8112   13.0504   -5.0453 N   0  0  0  0  0  0  0  0  0  0  0  0
    0.0443   12.3089   -3.6848 N   0  0  0  0  0  0  0  0  0  0  0  0
    1.4991   14.0876   -3.0211 N   0  0  0  0  0  0  0  0  0  0  0  0
   -1.0865   12.1277   -4.3838 C   0  0  0  0  0  0  0  0  0  0  0  0
    0.4005   13.6007   -3.6711 C   0  0  0  0  0  0  0  0  0  0  0  0
   -0.2481   14.6571   -4.2907 C   0  0  0  0  0  0  0  0  0  0  0  0
   -1.3930   14.3452   -5.0576 C   0  0  0  0  0  0  0  0  0  0  0  0
    0.4659   15.8426   -3.9181 C   0  0  0  0  0  0  0  0  0  0  0  0
    1.5722   15.4543   -3.1602 C   0  0  0  0  0  0  0  0  0  0  0  0
    2.5087   16.3683   -2.6660 C   0  0  0  0  0  0  0  0  0  0  0  0
    2.3098   17.7232   -2.9632 C   0  0  0  0  0  0  0  0  0  0  0  0
    1.2006   18.1578   -3.6979 C   0  0  0  0  0  0  0  0  0  0  0  0
    0.2614   17.2206   -4.1453 C   0  0  0  0  0  0  0  0  0  0  0  0
    2.1423   13.5112   -2.5002 H   0  0  0  0  0  0  0  0  0  0  0  0
   -2.1049   15.2763   -5.8024 N   0  0  0  0  0  0  0  0  0  0  0  0
   -2.0100   15.2341   -7.2594 C   0  0  0  0  0  0  0  0  0  0  0  0
   -3.3719   14.9736   -7.8984 C   0  0  0  0  0  0  0  0  0  0  0  0
   -4.4732   15.9053   -7.3831 C   0  0  0  0  0  0  0  0  0  0  0  0
   -4.0382   16.7318   -6.1753 C   0  0  0  0  0  0  0  0  0  0  0  0
   -3.2895   15.8545   -5.1766 C   0  0  0  0  0  0  0  0  0  0  0  0
    0.6411   20.4434   -2.9787 N   0  0  0  0  0  0  0  0  0  0  0  0
    1.0643   19.6157   -3.9825 C   0  0  0  0  0  0  0  0  0  0  0  0
    1.3011   20.0760   -5.0940 O   0  0  0  0  0  0  0  0  0  0  0  0
    0.5486   21.4249   -3.2065 H   0  0  0  0  0  0  0  0  0  0  0  0
    0.3967   20.1549   -2.0453 H   0  0  0  0  0  0  0  0  0  0  0  0
  3  5  1  0  0  0
  4  2  2  0  0  0
  5  6  2  0  0  0
  6  8  1  0  0  0
  7 15  1  0  0  0
  7  1  2  0  0  0
 16 15  1  0  0  0
 16 17  1  0  0  0
 17 18  1  0  0  0
 18 19  1  0  0  0
 19 20  1  0  0  0
 20 15  1  0  0  0
  9  3  1  0  0  0
  9 10  2  0  0  0
 11 12  2  0  0  0
 12 22  1  0  0  0
 13  8  2  0  0  0
 22 21  1  0  0  0
  4  1  1  0  0  0
  5  2  1  0  0  0
  6  7  1  0  0  0
  8  9  1  0  0  0
 10 11  1  0  0  0
 12 13  1  0  0  0
 22 23  2  0  0  0
  3 14  1  0  0  0
 21 24  1  0  0  0
 21 25  1  0  0  0
M  END
> <minimizedAffinity>
-8.92424

$$$$
CHEMBL3715588


 25 28  0  0  0  0  0  0  0  0999 V2000
   -2.6480   19.3533   -7.0419 N   0  0  0  0  0  0  0  0  0  0  0  0
   -1.0540   20.8309   -5.9836 N   0  0  0  0  0  0  0  0  0  0  0  0
    0.4365   19.7008   -4.4931 N   0  0  0  0  0  0  0  0  0  0  0  0
   -2.0698   20.5482   -6.8134 C   0  0  0  0  0  0  0  0  0  0  0  0
   -0.6041   19.7234   -5.3780 C   0  0  0  0  0  0  0  0  0  0  0  0
   -1.0872   18.4325   -5.5219 C   0  0  0  0  0  0  0  0  0  0  0  0
   -2.2035   18.2567   -6.3700 C   0  0  0  0  0  0  0  0  0  0  0  0
   -0.2313   17.5922   -4.7375 C   0  0  0  0  0  0  0  0  0  0  0  0
    0.6839   18.4134   -4.0763 C   0  0  0  0  0  0  0  0  0  0  0  0
    1.6452   17.9148   -3.1909 C   0  0  0  0  0  0  0  0  0  0  0  0
    1.6658   16.5310   -2.9701 C   0  0  0  0  0  0  0  0  0  0  0  0
    0.7832   15.6695   -3.6317 C   0  0  0  0  0  0  0  0  0  0  0  0
   -0.1417   16.1974   -4.5408 C   0  0  0  0  0  0  0  0  0  0  0  0
    0.9516   20.5219   -4.2139 H   0  0  0  0  0  0  0  0  0  0  0  0
   -2.8526   17.0433   -6.5561 N   0  0  0  0  0  0  0  0  0  0  0  0
   -2.3410   16.1179   -7.5638 C   0  0  0  0  0  0  0  0  0  0  0  0
   -1.9044   14.7967   -6.9356 C   0  0  0  0  0  0  0  0  0  0  0  0
   -2.9656   14.1792   -6.0197 C   0  0  0  0  0  0  0  0  0  0  0  0
   -4.1326   15.1227   -5.7386 C   0  0  0  0  0  0  0  0  0  0  0  0
   -3.6160   16.5238   -5.4262 C   0  0  0  0  0  0  0  0  0  0  0  0
    2.0687   13.6744   -2.9826 N   0  0  0  0  0  0  0  0  0  0  0  0
    0.8601   14.2097   -3.3355 C   0  0  0  0  0  0  0  0  0  0  0  0
   -0.1256   13.4857   -3.4235 O   0  0  0  0  0  0  0  0  0  0  0  0
    2.0898   12.6797   -2.7986 H   0  0  0  0  0  0  0  0  0  0  0  0
    2.9358   14.1817   -2.9116 H   0  0  0  0  0  0  0  0  0  0  0  0
  3  5  1  0  0  0
  4  2  2  0  0  0
  5  6  2  0  0  0
  6  8  1  0  0  0
  7 15  1  0  0  0
  7  1  2  0  0  0
 16 15  1  0  0  0
 16 17  1  0  0  0
 17 18  1  0  0  0
 18 19  1  0  0  0
 19 20  1  0  0  0
 20 15  1  0  0  0
  9  3  1  0  0  0
  9 10  2  0  0  0
 11 12  2  0  0  0
 12 22  1  0  0  0
 13  8  2  0  0  0
 22 21  1  0  0  0
  4  1  1  0  0  0
  5  2  1  0  0  0
  6  7  1  0  0  0
  8  9  1  0  0  0
 10 11  1  0  0  0
 12 13  1  0  0  0
 22 23  2  0  0  0
  3 14  1  0  0  0
 21 24  1  0  0  0
 21 25  1  0  0  0
M  END
> <minimizedAffinity>
-8.57541

$$$$
CHEMBL3715588


 25 28  0  0  0  0  0  0  0  0999 V2000
    2.0797   16.2640   -3.2513 N   0  0  0  0  0  0  0  0  0  0  0  0
    1.8036   13.8784   -2.9752 N   0  0  0  0  0  0  0  0  0  0  0  0
   -0.2645   13.0588   -3.8536 N   0  0  0  0  0  0  0  0  0  0  0  0
    2.4740   15.0354   -2.8649 C   0  0  0  0  0  0  0  0  0  0  0  0
    0.6248   14.0607   -3.5857 C   0  0  0  0  0  0  0  0  0  0  0  0
    0.0939   15.2550   -4.0466 C   0  0  0  0  0  0  0  0  0  0  0  0
    0.8536   16.4244   -3.8192 C   0  0  0  0  0  0  0  0  0  0  0  0
   -1.1421   14.9240   -4.6922 C   0  0  0  0  0  0  0  0  0  0  0  0
   -1.3595   13.5554   -4.5220 C   0  0  0  0  0  0  0  0  0  0  0  0
   -2.5030   12.9063   -4.9993 C   0  0  0  0  0  0  0  0  0  0  0  0
   -3.4581   13.6849   -5.6667 C   0  0  0  0  0  0  0  0  0  0  0  0
   -3.2676   15.0548   -5.8812 C   0  0  0  0  0  0  0  0  0  0  0  0
   -2.0939   15.6663   -5.4239 C   0  0  0  0  0  0  0  0  0  0  0  0
   -0.1108   12.0932   -3.6061 H   0  0  0  0  0  0  0  0  0  0  0  0
    0.4249   17.7038   -4.1472 N   0  0  0  0  0  0  0  0  0  0  0  0
    0.6343   18.7847   -3.1873 C   0  0  0  0  0  0  0  0  0  0  0  0
    1.5306   19.8768   -3.7658 C   0  0  0  0  0  0  0  0  0  0  0  0
    1.0816   20.3631   -5.1472 C   0  0  0  0  0  0  0  0  0  0  0  0
   -0.0165   19.4952   -5.7569 C   0  0  0  0  0  0  0  0  0  0  0  0
    0.3116   18.0173   -5.5678 C   0  0  0  0  0  0  0  0  0  0  0  0
   -4.1776   16.0810   -7.9240 N   0  0  0  0  0  0  0  0  0  0  0  0
   -4.3351   15.8177   -6.5907 C   0  0  0  0  0  0  0  0  0  0  0  0
   -5.3292   16.2269   -6.0010 O   0  0  0  0  0  0  0  0  0  0  0  0
   -4.9139   16.6096   -8.3737 H   0  0  0  0  0  0  0  0  0  0  0  0
   -3.3857   15.8117   -8.4848 H   0  0  0  0  0  0  0  0  0  0  0  0
  3  5  1  0  0  0
  4  2  2  0  0  0
  5  6  2  0  0  0
  6  8  1  0  0  0
  7 15  1  0  0  0
  7  1  2  0  0  0
 16 15  1  0  0  0
 16 17  1  0  0  0
 17 18  1  0  0  0
 18 19  1  0  0  0
 19 20  1  0  0  0
 20 15  1  0  0  0
  9  3  1  0  0  0
  9 10  2  0  0  0
 11 12  2  0  0  0
 12 22  1  0  0  0
 13  8  2  0  0  0
 22 21  1  0  0  0
  4  1  1  0  0  0
  5  2  1  0  0  0
  6  7  1  0  0  0
  8  9  1  0  0  0
 10 11  1  0  0  0
 12 13  1  0  0  0
 22 23  2  0  0  0
  3 14  1  0  0  0
 21 24  1  0  0  0
 21 25  1  0  0  0
M  END
> <minimizedAffinity>
-8.38055

$$$$
CHEMBL3715588


 25 28  0  0  0  0  0  0  0  0999 V2000
   -4.0080   16.5353   -6.7155 N   0  0  0  0  0  0  0  0  0  0  0  0
   -4.8463   14.2761   -6.5226 N   0  0  0  0  0  0  0  0  0  0  0  0
   -3.3064   12.7844   -5.4625 N   0  0  0  0  0  0  0  0  0  0  0  0
   -4.9352   15.5700   -6.8663 C   0  0  0  0  0  0  0  0  0  0  0  0
   -3.6708   14.0132   -5.9353 C   0  0  0  0  0  0  0  0  0  0  0  0
   -2.6319   14.9001   -5.7021 C   0  0  0  0  0  0  0  0  0  0  0  0
   -2.8031   16.2241   -6.1648 C   0  0  0  0  0  0  0  0  0  0  0  0
   -1.6323   14.1691   -4.9806 C   0  0  0  0  0  0  0  0  0  0  0  0
   -2.0614   12.8443   -4.8804 C   0  0  0  0  0  0  0  0  0  0  0  0
   -1.2981   11.8468   -4.2648 C   0  0  0  0  0  0  0  0  0  0  0  0
   -0.0521   12.2162   -3.7406 C   0  0  0  0  0  0  0  0  0  0  0  0
    0.4047   13.5379   -3.7971 C   0  0  0  0  0  0  0  0  0  0  0  0
   -0.4010   14.5199   -4.3864 C   0  0  0  0  0  0  0  0  0  0  0  0
   -3.8919   11.9653   -5.5228 H   0  0  0  0  0  0  0  0  0  0  0  0
   -1.8265   17.2077   -6.0803 N   0  0  0  0  0  0  0  0  0  0  0  0
   -1.5499   18.0287   -7.2563 C   0  0  0  0  0  0  0  0  0  0  0  0
   -1.8284   19.5046   -6.9826 C   0  0  0  0  0  0  0  0  0  0  0  0
   -1.1620   20.0220   -5.7041 C   0  0  0  0  0  0  0  0  0  0  0  0
   -0.5629   18.9067   -4.8508 C   0  0  0  0  0  0  0  0  0  0  0  0
   -1.5362   17.7362   -4.7515 C   0  0  0  0  0  0  0  0  0  0  0  0
    2.0130   15.1359   -2.8408 N   0  0  0  0  0  0  0  0  0  0  0  0
    1.7469   13.8504   -3.2263 C   0  0  0  0  0  0  0  0  0  0  0  0
    2.6131   12.9893   -3.1186 O   0  0  0  0  0  0  0  0  0  0  0  0
    2.9358   15.3175   -2.4677 H   0  0  0  0  0  0  0  0  0  0  0  0
    1.3776   15.9136   -2.9165 H   0  0  0  0  0  0  0  0  0  0  0  0
  3  5  1  0  0  0
  4  2  2  0  0  0
  5  6  2  0  0  0
  6  8  1  0  0  0
  7 15  1  0  0  0
  7  1  2  0  0  0
 16 15  1  0  0  0
 16 17  1  0  0  0
 17 18  1  0  0  0
 18 19  1  0  0  0
 19 20  1  0  0  0
 20 15  1  0  0  0
  9  3  1  0  0  0
  9 10  2  0  0  0
 11 12  2  0  0  0
 12 22  1  0  0  0
 13  8  2  0  0  0
 22 21  1  0  0  0
  4  1  1  0  0  0
  5  2  1  0  0  0
  6  7  1  0  0  0
  8  9  1  0  0  0
 10 11  1  0  0  0
 12 13  1  0  0  0
 22 23  2  0  0  0
  3 14  1  0  0  0
 21 24  1  0  0  0
 21 25  1  0  0  0
M  END
> <minimizedAffinity>
-8.32525

$$$$
CHEMBL3715588


 25 28  0  0  0  0  0  0  0  0999 V2000
   -4.4372   17.7725   -6.5780 N   0  0  0  0  0  0  0  0  0  0  0  0
   -5.8263   15.8967   -7.2069 N   0  0  0  0  0  0  0  0  0  0  0  0
   -4.8675   13.7797   -6.6414 N   0  0  0  0  0  0  0  0  0  0  0  0
   -5.5435   17.2034   -7.0941 C   0  0  0  0  0  0  0  0  0  0  0  0
   -4.8468   15.1450   -6.6860 C   0  0  0  0  0  0  0  0  0  0  0  0
   -3.6643   15.5859   -6.1134 C   0  0  0  0  0  0  0  0  0  0  0  0
   -3.4363   16.9803   -6.1064 C   0  0  0  0  0  0  0  0  0  0  0  0
   -2.9881   14.4166   -5.6344 C   0  0  0  0  0  0  0  0  0  0  0  0
   -3.7409   13.3032   -6.0122 C   0  0  0  0  0  0  0  0  0  0  0  0
   -3.3421   11.9913   -5.7350 C   0  0  0  0  0  0  0  0  0  0  0  0
   -2.1298   11.8135   -5.0549 C   0  0  0  0  0  0  0  0  0  0  0  0
   -1.3573   12.9027   -4.6357 C   0  0  0  0  0  0  0  0  0  0  0  0
   -1.8043   14.2040   -4.8956 C   0  0  0  0  0  0  0  0  0  0  0  0
   -5.6228   13.2193   -7.0059 H   0  0  0  0  0  0  0  0  0  0  0  0
   -2.2688   17.5729   -5.6438 N   0  0  0  0  0  0  0  0  0  0  0  0
   -2.0124   17.5960   -4.2059 C   0  0  0  0  0  0  0  0  0  0  0  0
   -0.7351   16.8364   -3.8562 C   0  0  0  0  0  0  0  0  0  0  0  0
    0.4722   17.2562   -4.7004 C   0  0  0  0  0  0  0  0  0  0  0  0
    0.0962   18.1659   -5.8674 C   0  0  0  0  0  0  0  0  0  0  0  0
   -1.1463   17.6329   -6.5741 C   0  0  0  0  0  0  0  0  0  0  0  0
    0.3022   11.3319   -3.7231 N   0  0  0  0  0  0  0  0  0  0  0  0
   -0.0735   12.6316   -3.9264 C   0  0  0  0  0  0  0  0  0  0  0  0
    0.6317   13.5433   -3.5079 O   0  0  0  0  0  0  0  0  0  0  0  0
    1.1726   11.1815   -3.2296 H   0  0  0  0  0  0  0  0  0  0  0  0
   -0.2226   10.5196   -4.0041 H   0  0  0  0  0  0  0  0  0  0  0  0
  3  5  1  0  0  0
  4  2  2  0  0  0
  5  6  2  0  0  0
  6  8  1  0  0  0
  7 15  1  0  0  0
  7  1  2  0  0  0
 16 15  1  0  0  0
 16 17  1  0  0  0
 17 18  1  0  0  0
 18 19  1  0  0  0
 19 20  1  0  0  0
 20 15  1  0  0  0
  9  3  1  0  0  0
  9 10  2  0  0  0
 11 12  2  0  0  0
 12 22  1  0  0  0
 13  8  2  0  0  0
 22 21  1  0  0  0
  4  1  1  0  0  0
  5  2  1  0  0  0
  6  7  1  0  0  0
  8  9  1  0  0  0
 10 11  1  0  0  0
 12 13  1  0  0  0
 22 23  2  0  0  0
  3 14  1  0  0  0
 21 24  1  0  0  0
 21 25  1  0  0  0
M  END
> <minimizedAffinity>
-8.15141

$$$$
CHEMBL3719354


 25 28  0  0  0  0  0  0  0  0999 V2000
    0.0120   18.0324   -4.0612 N   0  0  0  0  0  0  0  0  0  0  0  0
    1.6738   16.6206   -3.0177 N   0  0  0  0  0  0  0  0  0  0  0  0
    1.1695   14.2884   -3.1817 N   0  0  0  0  0  0  0  0  0  0  0  0
    1.1627   17.8006   -3.4008 C   0  0  0  0  0  0  0  0  0  0  0  0
    0.8926   15.6061   -3.4129 C   0  0  0  0  0  0  0  0  0  0  0  0
   -0.3048   15.6890   -4.1056 C   0  0  0  0  0  0  0  0  0  0  0  0
   -0.7864   16.9841   -4.4007 C   0  0  0  0  0  0  0  0  0  0  0  0
   -0.7146   14.3403   -4.3647 C   0  0  0  0  0  0  0  0  0  0  0  0
    0.2012   13.4890   -3.7436 C   0  0  0  0  0  0  0  0  0  0  0  0
    0.0746   12.0961   -3.7663 C   0  0  0  0  0  0  0  0  0  0  0  0
   -1.0292   11.5575   -4.4411 C   0  0  0  0  0  0  0  0  0  0  0  0
   -1.9567   12.3737   -5.0986 C   0  0  0  0  0  0  0  0  0  0  0  0
   -1.7796   13.7627   -5.0889 C   0  0  0  0  0  0  0  0  0  0  0  0
    1.9862   13.9671   -2.6845 H   0  0  0  0  0  0  0  0  0  0  0  0
   -2.0055   17.2367   -5.0157 N   0  0  0  0  0  0  0  0  0  0  0  0
   -2.0490   17.3569   -6.4708 C   0  0  0  0  0  0  0  0  0  0  0  0
   -2.9446   16.2871   -7.0909 C   0  0  0  0  0  0  0  0  0  0  0  0
   -4.3294   16.2027   -6.4417 C   0  0  0  0  0  0  0  0  0  0  0  0
   -4.4409   17.0323   -5.1649 C   0  0  0  0  0  0  0  0  0  0  0  0
   -3.2057   16.8289   -4.2929 C   0  0  0  0  0  0  0  0  0  0  0  0
   -4.3271   12.3524   -5.7583 N   0  0  0  0  0  0  0  0  0  0  0  0
   -3.1111   11.7259   -5.7860 C   0  0  0  0  0  0  0  0  0  0  0  0
   -2.9950   10.6433   -6.3499 O   0  0  0  0  0  0  0  0  0  0  0  0
   -5.0921   11.8821   -6.2244 H   0  0  0  0  0  0  0  0  0  0  0  0
   -4.5256   13.2259   -5.2983 H   0  0  0  0  0  0  0  0  0  0  0  0
  3  5  1  0  0  0
  4  2  2  0  0  0
  5  6  2  0  0  0
  6  8  1  0  0  0
  7 15  1  0  0  0
  7  1  2  0  0  0
 16 15  1  0  0  0
 16 17  1  0  0  0
 17 18  1  0  0  0
 18 19  1  0  0  0
 19 20  1  0  0  0
 20 15  1  0  0  0
  9  3  1  0  0  0
  9 10  2  0  0  0
 11 12  2  0  0  0
 12 22  1  0  0  0
 13  8  2  0  0  0
 22 21  1  0  0  0
  4  1  1  0  0  0
  5  2  1  0  0  0
  6  7  1  0  0  0
  8  9  1  0  0  0
 10 11  1  0  0  0
 12 13  1  0  0  0
 22 23  2  0  0  0
  3 14  1  0  0  0
 21 24  1  0  0  0
 21 25  1  0  0  0
M  END
> <minimizedAffinity>
-9.37467

$$$$
CHEMBL3719354


 25 28  0  0  0  0  0  0  0  0999 V2000
   -3.3947   13.8041   -5.7918 N   0  0  0  0  0  0  0  0  0  0  0  0
   -2.1983   11.8934   -4.9192 N   0  0  0  0  0  0  0  0  0  0  0  0
   -0.1262   12.4727   -3.8746 N   0  0  0  0  0  0  0  0  0  0  0  0
   -3.2332   12.4934   -5.5269 C   0  0  0  0  0  0  0  0  0  0  0  0
   -1.2793   12.7898   -4.5351 C   0  0  0  0  0  0  0  0  0  0  0  0
   -1.3139   14.1620   -4.7258 C   0  0  0  0  0  0  0  0  0  0  0  0
   -2.4179   14.6827   -5.4374 C   0  0  0  0  0  0  0  0  0  0  0  0
   -0.1533   14.6892   -4.0707 C   0  0  0  0  0  0  0  0  0  0  0  0
    0.5887   13.6115   -3.5838 C   0  0  0  0  0  0  0  0  0  0  0  0
    1.8098   13.7722   -2.9208 C   0  0  0  0  0  0  0  0  0  0  0  0
    2.2902   15.0784   -2.7568 C   0  0  0  0  0  0  0  0  0  0  0  0
    1.5659   16.1882   -3.2069 C   0  0  0  0  0  0  0  0  0  0  0  0
    0.3284   15.9944   -3.8328 C   0  0  0  0  0  0  0  0  0  0  0  0
    0.1353   11.5309   -3.6258 H   0  0  0  0  0  0  0  0  0  0  0  0
   -2.5587   16.0212   -5.7795 N   0  0  0  0  0  0  0  0  0  0  0  0
   -2.5859   16.3878   -7.1932 C   0  0  0  0  0  0  0  0  0  0  0  0
   -3.9083   17.0509   -7.5707 C   0  0  0  0  0  0  0  0  0  0  0  0
   -4.3034   18.1961   -6.6333 C   0  0  0  0  0  0  0  0  0  0  0  0
   -3.4231   18.2784   -5.3886 C   0  0  0  0  0  0  0  0  0  0  0  0
   -3.2076   16.8872   -4.8007 C   0  0  0  0  0  0  0  0  0  0  0  0
    3.4271   17.6473   -2.5279 N   0  0  0  0  0  0  0  0  0  0  0  0
    2.1487   17.5462   -3.0047 C   0  0  0  0  0  0  0  0  0  0  0  0
    1.5012   18.5617   -3.2349 O   0  0  0  0  0  0  0  0  0  0  0  0
    3.7896   18.5821   -2.3916 H   0  0  0  0  0  0  0  0  0  0  0  0
    4.0244   16.8739   -2.2843 H   0  0  0  0  0  0  0  0  0  0  0  0
  3  5  1  0  0  0
  4  2  2  0  0  0
  5  6  2  0  0  0
  6  8  1  0  0  0
  7 15  1  0  0  0
  7  1  2  0  0  0
 16 15  1  0  0  0
 16 17  1  0  0  0
 17 18  1  0  0  0
 18 19  1  0  0  0
 19 20  1  0  0  0
 20 15  1  0  0  0
  9  3  1  0  0  0
  9 10  2  0  0  0
 11 12  2  0  0  0
 12 22  1  0  0  0
 13  8  2  0  0  0
 22 21  1  0  0  0
  4  1  1  0  0  0
  5  2  1  0  0  0
  6  7  1  0  0  0
  8  9  1  0  0  0
 10 11  1  0  0  0
 12 13  1  0  0  0
 22 23  2  0  0  0
  3 14  1  0  0  0
 21 24  1  0  0  0
 21 25  1  0  0  0
M  END
> <minimizedAffinity>
-9.35390

$$$$
CHEMBL3719354


 25 28  0  0  0  0  0  0  0  0999 V2000
   -4.3622   13.4945   -6.0708 N   0  0  0  0  0  0  0  0  0  0  0  0
   -3.2707   11.4721   -5.3208 N   0  0  0  0  0  0  0  0  0  0  0  0
   -1.1386   11.8678   -4.3118 N   0  0  0  0  0  0  0  0  0  0  0  0
   -4.2797   12.1652   -5.8703 C   0  0  0  0  0  0  0  0  0  0  0  0
   -2.2854   12.2888   -4.9234 C   0  0  0  0  0  0  0  0  0  0  0  0
   -2.2353   13.6679   -5.0508 C   0  0  0  0  0  0  0  0  0  0  0  0
   -3.3212   14.2911   -5.7055 C   0  0  0  0  0  0  0  0  0  0  0  0
   -1.0260   14.0883   -4.4066 C   0  0  0  0  0  0  0  0  0  0  0  0
   -0.3435   12.9435   -3.9908 C   0  0  0  0  0  0  0  0  0  0  0  0
    0.9024   12.9944   -3.3569 C   0  0  0  0  0  0  0  0  0  0  0  0
    1.4712   14.2580   -3.1481 C   0  0  0  0  0  0  0  0  0  0  0  0
    0.8093   15.4318   -3.5262 C   0  0  0  0  0  0  0  0  0  0  0  0
   -0.4541   15.3473   -4.1240 C   0  0  0  0  0  0  0  0  0  0  0  0
   -0.9327   10.9005   -4.1137 H   0  0  0  0  0  0  0  0  0  0  0  0
   -3.3831   15.6504   -5.9825 N   0  0  0  0  0  0  0  0  0  0  0  0
   -3.8468   16.5615   -4.9391 C   0  0  0  0  0  0  0  0  0  0  0  0
   -2.7663   17.5723   -4.5626 C   0  0  0  0  0  0  0  0  0  0  0  0
   -2.1544   18.2865   -5.7717 C   0  0  0  0  0  0  0  0  0  0  0  0
   -2.5775   17.6724   -7.1039 C   0  0  0  0  0  0  0  0  0  0  0  0
   -2.5014   16.1504   -7.0321 C   0  0  0  0  0  0  0  0  0  0  0  0
    2.8054   16.7378   -2.9226 N   0  0  0  0  0  0  0  0  0  0  0  0
    1.4847   16.7387   -3.2797 C   0  0  0  0  0  0  0  0  0  0  0  0
    0.8775   17.8002   -3.3693 O   0  0  0  0  0  0  0  0  0  0  0  0
    3.2315   17.6395   -2.7520 H   0  0  0  0  0  0  0  0  0  0  0  0
    3.3777   15.9187   -2.7967 H   0  0  0  0  0  0  0  0  0  0  0  0
  3  5  1  0  0  0
  4  2  2  0  0  0
  5  6  2  0  0  0
  6  8  1  0  0  0
  7 15  1  0  0  0
  7  1  2  0  0  0
 16 15  1  0  0  0
 16 17  1  0  0  0
 17 18  1  0  0  0
 18 19  1  0  0  0
 19 20  1  0  0  0
 20 15  1  0  0  0
  9  3  1  0  0  0
  9 10  2  0  0  0
 11 12  2  0  0  0
 12 22  1  0  0  0
 13  8  2  0  0  0
 22 21  1  0  0  0
  4  1  1  0  0  0
  5  2  1  0  0  0
  6  7  1  0  0  0
  8  9  1  0  0  0
 10 11  1  0  0  0
 12 13  1  0  0  0
 22 23  2  0  0  0
  3 14  1  0  0  0
 21 24  1  0  0  0
 21 25  1  0  0  0
M  END
> <minimizedAffinity>
-9.17325

$$$$
CHEMBL3719354


 25 28  0  0  0  0  0  0  0  0999 V2000
   -1.2118   19.4293   -5.8538 N   0  0  0  0  0  0  0  0  0  0  0  0
    0.9138   19.5747   -4.7116 N   0  0  0  0  0  0  0  0  0  0  0  0
    1.6064   17.5030   -3.7374 N   0  0  0  0  0  0  0  0  0  0  0  0
   -0.1010   20.0675   -5.4380 C   0  0  0  0  0  0  0  0  0  0  0  0
    0.7277   18.2750   -4.4434 C   0  0  0  0  0  0  0  0  0  0  0  0
   -0.3513   17.4876   -4.8127 C   0  0  0  0  0  0  0  0  0  0  0  0
   -1.3971   18.1235   -5.5185 C   0  0  0  0  0  0  0  0  0  0  0  0
   -0.0521   16.1591   -4.3661 C   0  0  0  0  0  0  0  0  0  0  0  0
    1.1543   16.2058   -3.6650 C   0  0  0  0  0  0  0  0  0  0  0  0
    1.7196   15.0800   -3.0570 C   0  0  0  0  0  0  0  0  0  0  0  0
    1.0239   13.8684   -3.1647 C   0  0  0  0  0  0  0  0  0  0  0  0
   -0.1753   13.7722   -3.8799 C   0  0  0  0  0  0  0  0  0  0  0  0
   -0.6944   14.9104   -4.5090 C   0  0  0  0  0  0  0  0  0  0  0  0
    2.4704   17.8504   -3.3500 H   0  0  0  0  0  0  0  0  0  0  0  0
   -2.5784   17.4939   -5.8880 N   0  0  0  0  0  0  0  0  0  0  0  0
   -2.6268   16.7775   -7.1600 C   0  0  0  0  0  0  0  0  0  0  0  0
   -2.9191   15.2935   -6.9521 C   0  0  0  0  0  0  0  0  0  0  0  0
   -4.1338   15.0331   -6.0560 C   0  0  0  0  0  0  0  0  0  0  0  0
   -4.6493   16.2952   -5.3688 C   0  0  0  0  0  0  0  0  0  0  0  0
   -3.4840   17.1069   -4.8113 C   0  0  0  0  0  0  0  0  0  0  0  0
   -0.1130   11.3139   -3.7959 N   0  0  0  0  0  0  0  0  0  0  0  0
   -0.8622   12.4495   -3.9401 C   0  0  0  0  0  0  0  0  0  0  0  0
   -2.0695   12.3634   -4.1363 O   0  0  0  0  0  0  0  0  0  0  0  0
   -0.6068   10.4325   -3.8523 H   0  0  0  0  0  0  0  0  0  0  0  0
    0.8844   11.2834   -3.6599 H   0  0  0  0  0  0  0  0  0  0  0  0
  3  5  1  0  0  0
  4  2  2  0  0  0
  5  6  2  0  0  0
  6  8  1  0  0  0
  7 15  1  0  0  0
  7  1  2  0  0  0
 16 15  1  0  0  0
 16 17  1  0  0  0
 17 18  1  0  0  0
 18 19  1  0  0  0
 19 20  1  0  0  0
 20 15  1  0  0  0
  9  3  1  0  0  0
  9 10  2  0  0  0
 11 12  2  0  0  0
 12 22  1  0  0  0
 13  8  2  0  0  0
 22 21  1  0  0  0
  4  1  1  0  0  0
  5  2  1  0  0  0
  6  7  1  0  0  0
  8  9  1  0  0  0
 10 11  1  0  0  0
 12 13  1  0  0  0
 22 23  2  0  0  0
  3 14  1  0  0  0
 21 24  1  0  0  0
 21 25  1  0  0  0
M  END
> <minimizedAffinity>
-9.03006

$$$$
CHEMBL3719354


 25 28  0  0  0  0  0  0  0  0999 V2000
   -1.8112   13.0504   -5.0453 N   0  0  0  0  0  0  0  0  0  0  0  0
    0.0443   12.3089   -3.6848 N   0  0  0  0  0  0  0  0  0  0  0  0
    1.4991   14.0876   -3.0211 N   0  0  0  0  0  0  0  0  0  0  0  0
   -1.0865   12.1277   -4.3838 C   0  0  0  0  0  0  0  0  0  0  0  0
    0.4005   13.6007   -3.6711 C   0  0  0  0  0  0  0  0  0  0  0  0
   -0.2481   14.6571   -4.2907 C   0  0  0  0  0  0  0  0  0  0  0  0
   -1.3930   14.3452   -5.0576 C   0  0  0  0  0  0  0  0  0  0  0  0
    0.4659   15.8426   -3.9181 C   0  0  0  0  0  0  0  0  0  0  0  0
    1.5722   15.4543   -3.1602 C   0  0  0  0  0  0  0  0  0  0  0  0
    2.5087   16.3683   -2.6660 C   0  0  0  0  0  0  0  0  0  0  0  0
    2.3098   17.7232   -2.9632 C   0  0  0  0  0  0  0  0  0  0  0  0
    1.2006   18.1578   -3.6979 C   0  0  0  0  0  0  0  0  0  0  0  0
    0.2614   17.2206   -4.1453 C   0  0  0  0  0  0  0  0  0  0  0  0
    2.1423   13.5112   -2.5002 H   0  0  0  0  0  0  0  0  0  0  0  0
   -2.1049   15.2763   -5.8024 N   0  0  0  0  0  0  0  0  0  0  0  0
   -2.0100   15.2341   -7.2594 C   0  0  0  0  0  0  0  0  0  0  0  0
   -3.3719   14.9736   -7.8984 C   0  0  0  0  0  0  0  0  0  0  0  0
   -4.4732   15.9053   -7.3831 C   0  0  0  0  0  0  0  0  0  0  0  0
   -4.0382   16.7318   -6.1753 C   0  0  0  0  0  0  0  0  0  0  0  0
   -3.2895   15.8545   -5.1766 C   0  0  0  0  0  0  0  0  0  0  0  0
    0.6411   20.4434   -2.9787 N   0  0  0  0  0  0  0  0  0  0  0  0
    1.0643   19.6157   -3.9825 C   0  0  0  0  0  0  0  0  0  0  0  0
    1.3011   20.0760   -5.0940 O   0  0  0  0  0  0  0  0  0  0  0  0
    0.5486   21.4249   -3.2065 H   0  0  0  0  0  0  0  0  0  0  0  0
    0.3967   20.1549   -2.0453 H   0  0  0  0  0  0  0  0  0  0  0  0
  3  5  1  0  0  0
  4  2  2  0  0  0
  5  6  2  0  0  0
  6  8  1  0  0  0
  7 15  1  0  0  0
  7  1  2  0  0  0
 16 15  1  0  0  0
 16 17  1  0  0  0
 17 18  1  0  0  0
 18 19  1  0  0  0
 19 20  1  0  0  0
 20 15  1  0  0  0
  9  3  1  0  0  0
  9 10  2  0  0  0
 11 12  2  0  0  0
 12 22  1  0  0  0
 13  8  2  0  0  0
 22 21  1  0  0  0
  4  1  1  0  0  0
  5  2  1  0  0  0
  6  7  1  0  0  0
  8  9  1  0  0  0
 10 11  1  0  0  0
 12 13  1  0  0  0
 22 23  2  0  0  0
  3 14  1  0  0  0
 21 24  1  0  0  0
 21 25  1  0  0  0
M  END
> <minimizedAffinity>
-8.92424

$$$$
CHEMBL3719354


 25 28  0  0  0  0  0  0  0  0999 V2000
   -2.6480   19.3533   -7.0419 N   0  0  0  0  0  0  0  0  0  0  0  0
   -1.0540   20.8309   -5.9836 N   0  0  0  0  0  0  0  0  0  0  0  0
    0.4365   19.7008   -4.4931 N   0  0  0  0  0  0  0  0  0  0  0  0
   -2.0698   20.5482   -6.8134 C   0  0  0  0  0  0  0  0  0  0  0  0
   -0.6041   19.7234   -5.3780 C   0  0  0  0  0  0  0  0  0  0  0  0
   -1.0872   18.4325   -5.5219 C   0  0  0  0  0  0  0  0  0  0  0  0
   -2.2035   18.2567   -6.3700 C   0  0  0  0  0  0  0  0  0  0  0  0
   -0.2313   17.5922   -4.7375 C   0  0  0  0  0  0  0  0  0  0  0  0
    0.6839   18.4134   -4.0763 C   0  0  0  0  0  0  0  0  0  0  0  0
    1.6452   17.9148   -3.1909 C   0  0  0  0  0  0  0  0  0  0  0  0
    1.6658   16.5310   -2.9701 C   0  0  0  0  0  0  0  0  0  0  0  0
    0.7832   15.6695   -3.6317 C   0  0  0  0  0  0  0  0  0  0  0  0
   -0.1417   16.1974   -4.5408 C   0  0  0  0  0  0  0  0  0  0  0  0
    0.9516   20.5219   -4.2139 H   0  0  0  0  0  0  0  0  0  0  0  0
   -2.8526   17.0433   -6.5561 N   0  0  0  0  0  0  0  0  0  0  0  0
   -2.3410   16.1179   -7.5638 C   0  0  0  0  0  0  0  0  0  0  0  0
   -1.9044   14.7967   -6.9356 C   0  0  0  0  0  0  0  0  0  0  0  0
   -2.9656   14.1792   -6.0197 C   0  0  0  0  0  0  0  0  0  0  0  0
   -4.1326   15.1227   -5.7386 C   0  0  0  0  0  0  0  0  0  0  0  0
   -3.6160   16.5238   -5.4262 C   0  0  0  0  0  0  0  0  0  0  0  0
    2.0687   13.6744   -2.9826 N   0  0  0  0  0  0  0  0  0  0  0  0
    0.8601   14.2097   -3.3355 C   0  0  0  0  0  0  0  0  0  0  0  0
   -0.1256   13.4857   -3.4235 O   0  0  0  0  0  0  0  0  0  0  0  0
    2.0898   12.6797   -2.7986 H   0  0  0  0  0  0  0  0  0  0  0  0
    2.9358   14.1817   -2.9116 H   0  0  0  0  0  0  0  0  0  0  0  0
  3  5  1  0  0  0
  4  2  2  0  0  0
  5  6  2  0  0  0
  6  8  1  0  0  0
  7 15  1  0  0  0
  7  1  2  0  0  0
 16 15  1  0  0  0
 16 17  1  0  0  0
 17 18  1  0  0  0
 18 19  1  0  0  0
 19 20  1  0  0  0
 20 15  1  0  0  0
  9  3  1  0  0  0
  9 10  2  0  0  0
 11 12  2  0  0  0
 12 22  1  0  0  0
 13  8  2  0  0  0
 22 21  1  0  0  0
  4  1  1  0  0  0
  5  2  1  0  0  0
  6  7  1  0  0  0
  8  9  1  0  0  0
 10 11  1  0  0  0
 12 13  1  0  0  0
 22 23  2  0  0  0
  3 14  1  0  0  0
 21 24  1  0  0  0
 21 25  1  0  0  0
M  END
> <minimizedAffinity>
-8.57541

$$$$
CHEMBL3719354


 25 28  0  0  0  0  0  0  0  0999 V2000
    2.0797   16.2640   -3.2513 N   0  0  0  0  0  0  0  0  0  0  0  0
    1.8036   13.8784   -2.9752 N   0  0  0  0  0  0  0  0  0  0  0  0
   -0.2645   13.0588   -3.8536 N   0  0  0  0  0  0  0  0  0  0  0  0
    2.4740   15.0354   -2.8649 C   0  0  0  0  0  0  0  0  0  0  0  0
    0.6248   14.0607   -3.5857 C   0  0  0  0  0  0  0  0  0  0  0  0
    0.0939   15.2550   -4.0466 C   0  0  0  0  0  0  0  0  0  0  0  0
    0.8536   16.4244   -3.8192 C   0  0  0  0  0  0  0  0  0  0  0  0
   -1.1421   14.9240   -4.6922 C   0  0  0  0  0  0  0  0  0  0  0  0
   -1.3595   13.5554   -4.5220 C   0  0  0  0  0  0  0  0  0  0  0  0
   -2.5030   12.9063   -4.9993 C   0  0  0  0  0  0  0  0  0  0  0  0
   -3.4581   13.6849   -5.6667 C   0  0  0  0  0  0  0  0  0  0  0  0
   -3.2676   15.0548   -5.8812 C   0  0  0  0  0  0  0  0  0  0  0  0
   -2.0939   15.6663   -5.4239 C   0  0  0  0  0  0  0  0  0  0  0  0
   -0.1108   12.0932   -3.6061 H   0  0  0  0  0  0  0  0  0  0  0  0
    0.4249   17.7038   -4.1472 N   0  0  0  0  0  0  0  0  0  0  0  0
    0.6343   18.7847   -3.1873 C   0  0  0  0  0  0  0  0  0  0  0  0
    1.5306   19.8768   -3.7658 C   0  0  0  0  0  0  0  0  0  0  0  0
    1.0816   20.3631   -5.1472 C   0  0  0  0  0  0  0  0  0  0  0  0
   -0.0165   19.4952   -5.7569 C   0  0  0  0  0  0  0  0  0  0  0  0
    0.3116   18.0173   -5.5678 C   0  0  0  0  0  0  0  0  0  0  0  0
   -4.1776   16.0810   -7.9240 N   0  0  0  0  0  0  0  0  0  0  0  0
   -4.3351   15.8177   -6.5907 C   0  0  0  0  0  0  0  0  0  0  0  0
   -5.3292   16.2269   -6.0010 O   0  0  0  0  0  0  0  0  0  0  0  0
   -4.9139   16.6096   -8.3737 H   0  0  0  0  0  0  0  0  0  0  0  0
   -3.3857   15.8117   -8.4848 H   0  0  0  0  0  0  0  0  0  0  0  0
  3  5  1  0  0  0
  4  2  2  0  0  0
  5  6  2  0  0  0
  6  8  1  0  0  0
  7 15  1  0  0  0
  7  1  2  0  0  0
 16 15  1  0  0  0
 16 17  1  0  0  0
 17 18  1  0  0  0
 18 19  1  0  0  0
 19 20  1  0  0  0
 20 15  1  0  0  0
  9  3  1  0  0  0
  9 10  2  0  0  0
 11 12  2  0  0  0
 12 22  1  0  0  0
 13  8  2  0  0  0
 22 21  1  0  0  0
  4  1  1  0  0  0
  5  2  1  0  0  0
  6  7  1  0  0  0
  8  9  1  0  0  0
 10 11  1  0  0  0
 12 13  1  0  0  0
 22 23  2  0  0  0
  3 14  1  0  0  0
 21 24  1  0  0  0
 21 25  1  0  0  0
M  END
> <minimizedAffinity>
-8.38055

$$$$
CHEMBL3719354


 25 28  0  0  0  0  0  0  0  0999 V2000
   -4.0080   16.5353   -6.7155 N   0  0  0  0  0  0  0  0  0  0  0  0
   -4.8463   14.2761   -6.5226 N   0  0  0  0  0  0  0  0  0  0  0  0
   -3.3064   12.7844   -5.4625 N   0  0  0  0  0  0  0  0  0  0  0  0
   -4.9352   15.5700   -6.8663 C   0  0  0  0  0  0  0  0  0  0  0  0
   -3.6708   14.0132   -5.9353 C   0  0  0  0  0  0  0  0  0  0  0  0
   -2.6319   14.9001   -5.7021 C   0  0  0  0  0  0  0  0  0  0  0  0
   -2.8031   16.2241   -6.1648 C   0  0  0  0  0  0  0  0  0  0  0  0
   -1.6323   14.1691   -4.9806 C   0  0  0  0  0  0  0  0  0  0  0  0
   -2.0614   12.8443   -4.8804 C   0  0  0  0  0  0  0  0  0  0  0  0
   -1.2981   11.8468   -4.2648 C   0  0  0  0  0  0  0  0  0  0  0  0
   -0.0521   12.2162   -3.7406 C   0  0  0  0  0  0  0  0  0  0  0  0
    0.4047   13.5379   -3.7971 C   0  0  0  0  0  0  0  0  0  0  0  0
   -0.4010   14.5199   -4.3864 C   0  0  0  0  0  0  0  0  0  0  0  0
   -3.8919   11.9653   -5.5228 H   0  0  0  0  0  0  0  0  0  0  0  0
   -1.8265   17.2077   -6.0803 N   0  0  0  0  0  0  0  0  0  0  0  0
   -1.5499   18.0287   -7.2563 C   0  0  0  0  0  0  0  0  0  0  0  0
   -1.8284   19.5046   -6.9826 C   0  0  0  0  0  0  0  0  0  0  0  0
   -1.1620   20.0220   -5.7041 C   0  0  0  0  0  0  0  0  0  0  0  0
   -0.5629   18.9067   -4.8508 C   0  0  0  0  0  0  0  0  0  0  0  0
   -1.5362   17.7362   -4.7515 C   0  0  0  0  0  0  0  0  0  0  0  0
    2.0130   15.1359   -2.8408 N   0  0  0  0  0  0  0  0  0  0  0  0
    1.7469   13.8504   -3.2263 C   0  0  0  0  0  0  0  0  0  0  0  0
    2.6131   12.9893   -3.1186 O   0  0  0  0  0  0  0  0  0  0  0  0
    2.9358   15.3175   -2.4677 H   0  0  0  0  0  0  0  0  0  0  0  0
    1.3776   15.9136   -2.9165 H   0  0  0  0  0  0  0  0  0  0  0  0
  3  5  1  0  0  0
  4  2  2  0  0  0
  5  6  2  0  0  0
  6  8  1  0  0  0
  7 15  1  0  0  0
  7  1  2  0  0  0
 16 15  1  0  0  0
 16 17  1  0  0  0
 17 18  1  0  0  0
 18 19  1  0  0  0
 19 20  1  0  0  0
 20 15  1  0  0  0
  9  3  1  0  0  0
  9 10  2  0  0  0
 11 12  2  0  0  0
 12 22  1  0  0  0
 13  8  2  0  0  0
 22 21  1  0  0  0
  4  1  1  0  0  0
  5  2  1  0  0  0
  6  7  1  0  0  0
  8  9  1  0  0  0
 10 11  1  0  0  0
 12 13  1  0  0  0
 22 23  2  0  0  0
  3 14  1  0  0  0
 21 24  1  0  0  0
 21 25  1  0  0  0
M  END
> <minimizedAffinity>
-8.32525

$$$$
CHEMBL3719354


 25 28  0  0  0  0  0  0  0  0999 V2000
   -4.4372   17.7725   -6.5780 N   0  0  0  0  0  0  0  0  0  0  0  0
   -5.8263   15.8967   -7.2069 N   0  0  0  0  0  0  0  0  0  0  0  0
   -4.8675   13.7797   -6.6414 N   0  0  0  0  0  0  0  0  0  0  0  0
   -5.5435   17.2034   -7.0941 C   0  0  0  0  0  0  0  0  0  0  0  0
   -4.8468   15.1450   -6.6860 C   0  0  0  0  0  0  0  0  0  0  0  0
   -3.6643   15.5859   -6.1134 C   0  0  0  0  0  0  0  0  0  0  0  0
   -3.4363   16.9803   -6.1064 C   0  0  0  0  0  0  0  0  0  0  0  0
   -2.9881   14.4166   -5.6344 C   0  0  0  0  0  0  0  0  0  0  0  0
   -3.7409   13.3032   -6.0122 C   0  0  0  0  0  0  0  0  0  0  0  0
   -3.3421   11.9913   -5.7350 C   0  0  0  0  0  0  0  0  0  0  0  0
   -2.1298   11.8135   -5.0549 C   0  0  0  0  0  0  0  0  0  0  0  0
   -1.3573   12.9027   -4.6357 C   0  0  0  0  0  0  0  0  0  0  0  0
   -1.8043   14.2040   -4.8956 C   0  0  0  0  0  0  0  0  0  0  0  0
   -5.6228   13.2193   -7.0059 H   0  0  0  0  0  0  0  0  0  0  0  0
   -2.2688   17.5729   -5.6438 N   0  0  0  0  0  0  0  0  0  0  0  0
   -2.0124   17.5960   -4.2059 C   0  0  0  0  0  0  0  0  0  0  0  0
   -0.7351   16.8364   -3.8562 C   0  0  0  0  0  0  0  0  0  0  0  0
    0.4722   17.2562   -4.7004 C   0  0  0  0  0  0  0  0  0  0  0  0
    0.0962   18.1659   -5.8674 C   0  0  0  0  0  0  0  0  0  0  0  0
   -1.1463   17.6329   -6.5741 C   0  0  0  0  0  0  0  0  0  0  0  0
    0.3022   11.3319   -3.7231 N   0  0  0  0  0  0  0  0  0  0  0  0
   -0.0735   12.6316   -3.9264 C   0  0  0  0  0  0  0  0  0  0  0  0
    0.6317   13.5433   -3.5079 O   0  0  0  0  0  0  0  0  0  0  0  0
    1.1726   11.1815   -3.2296 H   0  0  0  0  0  0  0  0  0  0  0  0
   -0.2226   10.5196   -4.0041 H   0  0  0  0  0  0  0  0  0  0  0  0
  3  5  1  0  0  0
  4  2  2  0  0  0
  5  6  2  0  0  0
  6  8  1  0  0  0
  7 15  1  0  0  0
  7  1  2  0  0  0
 16 15  1  0  0  0
 16 17  1  0  0  0
 17 18  1  0  0  0
 18 19  1  0  0  0
 19 20  1  0  0  0
 20 15  1  0  0  0
  9  3  1  0  0  0
  9 10  2  0  0  0
 11 12  2  0  0  0
 12 22  1  0  0  0
 13  8  2  0  0  0
 22 21  1  0  0  0
  4  1  1  0  0  0
  5  2  1  0  0  0
  6  7  1  0  0  0
  8  9  1  0  0  0
 10 11  1  0  0  0
 12 13  1  0  0  0
 22 23  2  0  0  0
  3 14  1  0  0  0
 21 24  1  0  0  0
 21 25  1  0  0  0
M  END
> <minimizedAffinity>
-8.15141

$$$$
CHEMBL3716162


 26 29  0  0  0  0  0  0  0  0999 V2000
   -3.5482   13.7780   -5.6762 N   0  0  0  0  0  0  0  0  0  0  0  0
   -2.2970   11.8111   -5.0349 N   0  0  0  0  0  0  0  0  0  0  0  0
   -0.1771   12.3157   -4.0536 N   0  0  0  0  0  0  0  0  0  0  0  0
   -3.3648   12.4517   -5.5354 C   0  0  0  0  0  0  0  0  0  0  0  0
   -1.3642   12.6802   -4.6223 C   0  0  0  0  0  0  0  0  0  0  0  0
   -1.4148   14.0636   -4.6889 C   0  0  0  0  0  0  0  0  0  0  0  0
   -2.5619   14.6328   -5.2909 C   0  0  0  0  0  0  0  0  0  0  0  0
   -0.2176   14.5404   -4.0553 C   0  0  0  0  0  0  0  0  0  0  0  0
    0.5512   13.4288   -3.7041 C   0  0  0  0  0  0  0  0  0  0  0  0
    1.8108   13.5376   -3.1031 C   0  0  0  0  0  0  0  0  0  0  0  0
    2.3105   14.8249   -2.8549 C   0  0  0  0  0  0  0  0  0  0  0  0
    1.5631   15.9643   -3.1674 C   0  0  0  0  0  0  0  0  0  0  0  0
    0.2906   15.8190   -3.7426 C   0  0  0  0  0  0  0  0  0  0  0  0
    0.0999   11.3572   -3.9074 H   0  0  0  0  0  0  0  0  0  0  0  0
   -2.7374   15.9937   -5.4773 N   0  0  0  0  0  0  0  0  0  0  0  0
   -2.5328   16.5561   -6.8104 C   0  0  0  0  0  0  0  0  0  0  0  0
   -3.8720   16.8459   -7.4921 C   0  0  0  0  0  0  0  0  0  0  0  0
   -4.8226   17.6682   -6.6104 C   0  0  0  0  0  0  0  0  0  0  0  0
   -4.9757   16.9858   -5.2422 C   0  0  0  0  0  0  0  0  0  0  0  0
   -3.6288   16.7131   -4.5746 C   0  0  0  0  0  0  0  0  0  0  0  0
   -4.3612   19.1229   -6.4793 C   0  0  0  0  0  0  0  0  0  0  0  0
    3.3332   17.5551   -2.5348 N   0  0  0  0  0  0  0  0  0  0  0  0
    2.0482   17.3591   -2.9525 C   0  0  0  0  0  0  0  0  0  0  0  0
    1.3229   18.3282   -3.1532 O   0  0  0  0  0  0  0  0  0  0  0  0
    3.6233   18.5168   -2.4110 H   0  0  0  0  0  0  0  0  0  0  0  0
    4.0009   16.8295   -2.3340 H   0  0  0  0  0  0  0  0  0  0  0  0
  3  5  1  0  0  0
  4  2  2  0  0  0
  5  6  2  0  0  0
  6  8  1  0  0  0
  7 15  1  0  0  0
  7  1  2  0  0  0
 16 15  1  0  0  0
 16 17  1  0  0  0
 17 18  1  0  0  0
 18 19  1  0  0  0
 18 21  1  0  0  0
 19 20  1  0  0  0
 20 15  1  0  0  0
  9  3  1  0  0  0
  9 10  2  0  0  0
 11 12  2  0  0  0
 12 23  1  0  0  0
 13  8  2  0  0  0
 23 22  1  0  0  0
  4  1  1  0  0  0
  5  2  1  0  0  0
  6  7  1  0  0  0
  8  9  1  0  0  0
 10 11  1  0  0  0
 12 13  1  0  0  0
 23 24  2  0  0  0
  3 14  1  0  0  0
 22 25  1  0  0  0
 22 26  1  0  0  0
M  END
> <minimizedAffinity>
-10.04545

$$$$
CHEMBL3716162


 26 29  0  0  0  0  0  0  0  0999 V2000
   -2.7047   13.4004   -5.1111 N   0  0  0  0  0  0  0  0  0  0  0  0
   -0.8837   12.2599   -4.0027 N   0  0  0  0  0  0  0  0  0  0  0  0
    0.8632   13.7295   -3.2951 N   0  0  0  0  0  0  0  0  0  0  0  0
   -2.0767   12.3181   -4.6145 C   0  0  0  0  0  0  0  0  0  0  0  0
   -0.3407   13.4798   -3.8901 C   0  0  0  0  0  0  0  0  0  0  0  0
   -0.8690   14.6806   -4.3373 C   0  0  0  0  0  0  0  0  0  0  0  0
   -2.1051   14.6189   -5.0230 C   0  0  0  0  0  0  0  0  0  0  0  0
    0.0457   15.7040   -3.9149 C   0  0  0  0  0  0  0  0  0  0  0  0
    1.1331   15.0781   -3.3020 C   0  0  0  0  0  0  0  0  0  0  0  0
    2.2369   15.7854   -2.8111 C   0  0  0  0  0  0  0  0  0  0  0  0
    2.2381   17.1811   -2.9538 C   0  0  0  0  0  0  0  0  0  0  0  0
    1.1587   17.8501   -3.5383 C   0  0  0  0  0  0  0  0  0  0  0  0
    0.0541   17.1127   -3.9936 C   0  0  0  0  0  0  0  0  0  0  0  0
    1.4493   13.0105   -2.8999 H   0  0  0  0  0  0  0  0  0  0  0  0
   -2.7352   15.7224   -5.5734 N   0  0  0  0  0  0  0  0  0  0  0  0
   -2.4955   16.0447   -6.9785 C   0  0  0  0  0  0  0  0  0  0  0  0
   -3.6823   15.6198   -7.8461 C   0  0  0  0  0  0  0  0  0  0  0  0
   -5.0255   16.1363   -7.3109 C   0  0  0  0  0  0  0  0  0  0  0  0
   -5.1806   15.7351   -5.8358 C   0  0  0  0  0  0  0  0  0  0  0  0
   -3.9904   16.1756   -4.9853 C   0  0  0  0  0  0  0  0  0  0  0  0
   -5.1762   17.6469   -7.5152 C   0  0  0  0  0  0  0  0  0  0  0  0
    0.9012   20.1374   -2.6630 N   0  0  0  0  0  0  0  0  0  0  0  0
    1.1106   19.3277   -3.7422 C   0  0  0  0  0  0  0  0  0  0  0  0
    1.2655   19.8270   -4.8522 O   0  0  0  0  0  0  0  0  0  0  0  0
    0.8855   21.1329   -2.8451 H   0  0  0  0  0  0  0  0  0  0  0  0
    0.7538   19.8266   -1.7174 H   0  0  0  0  0  0  0  0  0  0  0  0
  3  5  1  0  0  0
  4  2  2  0  0  0
  5  6  2  0  0  0
  6  8  1  0  0  0
  7 15  1  0  0  0
  7  1  2  0  0  0
 16 15  1  0  0  0
 16 17  1  0  0  0
 17 18  1  0  0  0
 18 19  1  0  0  0
 18 21  1  0  0  0
 19 20  1  0  0  0
 20 15  1  0  0  0
  9  3  1  0  0  0
  9 10  2  0  0  0
 11 12  2  0  0  0
 12 23  1  0  0  0
 13  8  2  0  0  0
 23 22  1  0  0  0
  4  1  1  0  0  0
  5  2  1  0  0  0
  6  7  1  0  0  0
  8  9  1  0  0  0
 10 11  1  0  0  0
 12 13  1  0  0  0
 23 24  2  0  0  0
  3 14  1  0  0  0
 22 25  1  0  0  0
 22 26  1  0  0  0
M  END
> <minimizedAffinity>
-9.74802

$$$$
CHEMBL3716162


 26 29  0  0  0  0  0  0  0  0999 V2000
   -4.6874   14.9464   -6.0807 N   0  0  0  0  0  0  0  0  0  0  0  0
   -4.5980   12.5306   -6.1149 N   0  0  0  0  0  0  0  0  0  0  0  0
   -2.5533   11.6463   -5.2496 N   0  0  0  0  0  0  0  0  0  0  0  0
   -5.1873   13.7191   -6.3179 C   0  0  0  0  0  0  0  0  0  0  0  0
   -3.3789   12.6830   -5.5799 C   0  0  0  0  0  0  0  0  0  0  0  0
   -2.7390   13.8726   -5.2694 C   0  0  0  0  0  0  0  0  0  0  0  0
   -3.4275   15.0688   -5.5809 C   0  0  0  0  0  0  0  0  0  0  0  0
   -1.4935   13.5098   -4.6534 C   0  0  0  0  0  0  0  0  0  0  0  0
   -1.3889   12.1178   -4.6896 C   0  0  0  0  0  0  0  0  0  0  0  0
   -0.2689   11.4290   -4.2093 C   0  0  0  0  0  0  0  0  0  0  0  0
    0.7873   12.1840   -3.6773 C   0  0  0  0  0  0  0  0  0  0  0  0
    0.7132   13.5778   -3.5986 C   0  0  0  0  0  0  0  0  0  0  0  0
   -0.4373   14.2352   -4.0627 C   0  0  0  0  0  0  0  0  0  0  0  0
   -2.7911   10.6769   -5.3928 H   0  0  0  0  0  0  0  0  0  0  0  0
   -2.9015   16.3338   -5.3789 N   0  0  0  0  0  0  0  0  0  0  0  0
   -1.7478   16.7537   -6.1714 C   0  0  0  0  0  0  0  0  0  0  0  0
   -2.1722   17.7069   -7.2908 C   0  0  0  0  0  0  0  0  0  0  0  0
   -3.0352   18.8717   -6.7849 C   0  0  0  0  0  0  0  0  0  0  0  0
   -4.2210   18.3213   -5.9774 C   0  0  0  0  0  0  0  0  0  0  0  0
   -3.7761   17.3792   -4.8600 C   0  0  0  0  0  0  0  0  0  0  0  0
   -2.2117   19.8826   -5.9812 C   0  0  0  0  0  0  0  0  0  0  0  0
    1.6061   15.7842   -2.9676 N   0  0  0  0  0  0  0  0  0  0  0  0
    1.8112   14.4382   -3.0684 C   0  0  0  0  0  0  0  0  0  0  0  0
    2.8844   13.9615   -2.7130 O   0  0  0  0  0  0  0  0  0  0  0  0
    2.3734   16.3285   -2.5941 H   0  0  0  0  0  0  0  0  0  0  0  0
    0.7688   16.2712   -3.2403 H   0  0  0  0  0  0  0  0  0  0  0  0
  3  5  1  0  0  0
  4  2  2  0  0  0
  5  6  2  0  0  0
  6  8  1  0  0  0
  7 15  1  0  0  0
  7  1  2  0  0  0
 16 15  1  0  0  0
 16 17  1  0  0  0
 17 18  1  0  0  0
 18 19  1  0  0  0
 18 21  1  0  0  0
 19 20  1  0  0  0
 20 15  1  0  0  0
  9  3  1  0  0  0
  9 10  2  0  0  0
 11 12  2  0  0  0
 12 23  1  0  0  0
 13  8  2  0  0  0
 23 22  1  0  0  0
  4  1  1  0  0  0
  5  2  1  0  0  0
  6  7  1  0  0  0
  8  9  1  0  0  0
 10 11  1  0  0  0
 12 13  1  0  0  0
 23 24  2  0  0  0
  3 14  1  0  0  0
 22 25  1  0  0  0
 22 26  1  0  0  0
M  END
> <minimizedAffinity>
-8.94967

$$$$
CHEMBL3716162


 26 29  0  0  0  0  0  0  0  0999 V2000
   -2.4145   19.1305   -6.5925 N   0  0  0  0  0  0  0  0  0  0  0  0
   -0.8177   20.7487   -5.7697 N   0  0  0  0  0  0  0  0  0  0  0  0
    0.8641   19.7909   -4.3676 N   0  0  0  0  0  0  0  0  0  0  0  0
   -1.8879   20.3646   -6.4826 C   0  0  0  0  0  0  0  0  0  0  0  0
   -0.2515   19.7037   -5.1507 C   0  0  0  0  0  0  0  0  0  0  0  0
   -0.6681   18.3821   -5.1791 C   0  0  0  0  0  0  0  0  0  0  0  0
   -1.8439   18.0984   -5.9133 C   0  0  0  0  0  0  0  0  0  0  0  0
    0.3031   17.6385   -4.4268 C   0  0  0  0  0  0  0  0  0  0  0  0
    1.2239   18.5477   -3.9021 C   0  0  0  0  0  0  0  0  0  0  0  0
    2.2851   18.1602   -3.0754 C   0  0  0  0  0  0  0  0  0  0  0  0
    2.4118   16.7977   -2.7656 C   0  0  0  0  0  0  0  0  0  0  0  0
    1.5271   15.8507   -3.2900 C   0  0  0  0  0  0  0  0  0  0  0  0
    0.4911   16.2699   -4.1397 C   0  0  0  0  0  0  0  0  0  0  0  0
    1.3485   20.6556   -4.1818 H   0  0  0  0  0  0  0  0  0  0  0  0
   -2.4144   16.8392   -5.9952 N   0  0  0  0  0  0  0  0  0  0  0  0
   -3.1515   16.3217   -4.8443 C   0  0  0  0  0  0  0  0  0  0  0  0
   -4.6613   16.4200   -5.0739 C   0  0  0  0  0  0  0  0  0  0  0  0
   -5.0997   15.8150   -6.4151 C   0  0  0  0  0  0  0  0  0  0  0  0
   -4.2735   16.4334   -7.5536 C   0  0  0  0  0  0  0  0  0  0  0  0
   -2.7697   16.3174   -7.3099 C   0  0  0  0  0  0  0  0  0  0  0  0
   -5.0115   14.2858   -6.4053 C   0  0  0  0  0  0  0  0  0  0  0  0
    0.4537   13.6453   -3.0710 N   0  0  0  0  0  0  0  0  0  0  0  0
    1.5924   14.3927   -2.9785 C   0  0  0  0  0  0  0  0  0  0  0  0
    2.6454   13.8532   -2.6535 O   0  0  0  0  0  0  0  0  0  0  0  0
    0.5452   12.6596   -2.8604 H   0  0  0  0  0  0  0  0  0  0  0  0
   -0.4572   13.9939   -3.3187 H   0  0  0  0  0  0  0  0  0  0  0  0
  3  5  1  0  0  0
  4  2  2  0  0  0
  5  6  2  0  0  0
  6  8  1  0  0  0
  7 15  1  0  0  0
  7  1  2  0  0  0
 16 15  1  0  0  0
 16 17  1  0  0  0
 17 18  1  0  0  0
 18 19  1  0  0  0
 18 21  1  0  0  0
 19 20  1  0  0  0
 20 15  1  0  0  0
  9  3  1  0  0  0
  9 10  2  0  0  0
 11 12  2  0  0  0
 12 23  1  0  0  0
 13  8  2  0  0  0
 23 22  1  0  0  0
  4  1  1  0  0  0
  5  2  1  0  0  0
  6  7  1  0  0  0
  8  9  1  0  0  0
 10 11  1  0  0  0
 12 13  1  0  0  0
 23 24  2  0  0  0
  3 14  1  0  0  0
 22 25  1  0  0  0
 22 26  1  0  0  0
M  END
> <minimizedAffinity>
-8.72921

$$$$
CHEMBL3716162


 26 29  0  0  0  0  0  0  0  0999 V2000
   -0.8274   14.6435   -4.2018 N   0  0  0  0  0  0  0  0  0  0  0  0
    1.2985   14.0592   -3.2097 N   0  0  0  0  0  0  0  0  0  0  0  0
    2.6462   15.9581   -2.6716 N   0  0  0  0  0  0  0  0  0  0  0  0
    0.0929   13.7818   -3.7298 C   0  0  0  0  0  0  0  0  0  0  0  0
    1.5115   15.3815   -3.1670 C   0  0  0  0  0  0  0  0  0  0  0  0
    0.6596   16.3854   -3.6000 C   0  0  0  0  0  0  0  0  0  0  0  0
   -0.5613   15.9781   -4.1878 C   0  0  0  0  0  0  0  0  0  0  0  0
    1.3026   17.6270   -3.2724 C   0  0  0  0  0  0  0  0  0  0  0  0
    2.5545   17.3292   -2.7300 C   0  0  0  0  0  0  0  0  0  0  0  0
    3.4667   18.3173   -2.3412 C   0  0  0  0  0  0  0  0  0  0  0  0
    3.0947   19.6589   -2.5157 C   0  0  0  0  0  0  0  0  0  0  0  0
    1.8412   20.0015   -3.0312 C   0  0  0  0  0  0  0  0  0  0  0  0
    0.9386   18.9856   -3.3839 C   0  0  0  0  0  0  0  0  0  0  0  0
    3.4247   15.4320   -2.3058 H   0  0  0  0  0  0  0  0  0  0  0  0
   -1.4928   16.8575   -4.7137 N   0  0  0  0  0  0  0  0  0  0  0  0
   -1.2760   17.3975   -6.0542 C   0  0  0  0  0  0  0  0  0  0  0  0
   -2.1728   16.6963   -7.0768 C   0  0  0  0  0  0  0  0  0  0  0  0
   -3.6477   16.6640   -6.6514 C   0  0  0  0  0  0  0  0  0  0  0  0
   -3.7633   16.0709   -5.2386 C   0  0  0  0  0  0  0  0  0  0  0  0
   -2.8674   16.7899   -4.2313 C   0  0  0  0  0  0  0  0  0  0  0  0
   -4.2985   18.0471   -6.7498 C   0  0  0  0  0  0  0  0  0  0  0  0
    1.6146   21.9747   -4.4870 N   0  0  0  0  0  0  0  0  0  0  0  0
    1.3963   21.4067   -3.2648 C   0  0  0  0  0  0  0  0  0  0  0  0
    0.8316   22.0543   -2.3889 O   0  0  0  0  0  0  0  0  0  0  0  0
    1.2885   22.9255   -4.6049 H   0  0  0  0  0  0  0  0  0  0  0  0
    2.0759   21.5325   -5.2644 H   0  0  0  0  0  0  0  0  0  0  0  0
  3  5  1  0  0  0
  4  2  2  0  0  0
  5  6  2  0  0  0
  6  8  1  0  0  0
  7 15  1  0  0  0
  7  1  2  0  0  0
 16 15  1  0  0  0
 16 17  1  0  0  0
 17 18  1  0  0  0
 18 19  1  0  0  0
 18 21  1  0  0  0
 19 20  1  0  0  0
 20 15  1  0  0  0
  9  3  1  0  0  0
  9 10  2  0  0  0
 11 12  2  0  0  0
 12 23  1  0  0  0
 13  8  2  0  0  0
 23 22  1  0  0  0
  4  1  1  0  0  0
  5  2  1  0  0  0
  6  7  1  0  0  0
  8  9  1  0  0  0
 10 11  1  0  0  0
 12 13  1  0  0  0
 23 24  2  0  0  0
  3 14  1  0  0  0
 22 25  1  0  0  0
 22 26  1  0  0  0
M  END
> <minimizedAffinity>
-8.70332

$$$$
CHEMBL3716162


 26 29  0  0  0  0  0  0  0  0999 V2000
   -1.2523   19.0300   -5.7680 N   0  0  0  0  0  0  0  0  0  0  0  0
    0.8025   19.4532   -4.5662 N   0  0  0  0  0  0  0  0  0  0  0  0
    1.7262   17.4965   -3.5516 N   0  0  0  0  0  0  0  0  0  0  0  0
   -0.2461   19.8072   -5.3253 C   0  0  0  0  0  0  0  0  0  0  0  0
    0.7766   18.1419   -4.2912 C   0  0  0  0  0  0  0  0  0  0  0  0
   -0.1791   17.2184   -4.6844 C   0  0  0  0  0  0  0  0  0  0  0  0
   -1.2747   17.7114   -5.4318 C   0  0  0  0  0  0  0  0  0  0  0  0
    0.2754   15.9422   -4.2080 C   0  0  0  0  0  0  0  0  0  0  0  0
    1.4445   16.1525   -3.4738 C   0  0  0  0  0  0  0  0  0  0  0  0
    2.1299   15.1174   -2.8269 C   0  0  0  0  0  0  0  0  0  0  0  0
    1.6039   13.8204   -2.9251 C   0  0  0  0  0  0  0  0  0  0  0  0
    0.4501   13.5616   -3.6710 C   0  0  0  0  0  0  0  0  0  0  0  0
   -0.1963   14.6183   -4.3317 C   0  0  0  0  0  0  0  0  0  0  0  0
    2.5225   17.9591   -3.1409 H   0  0  0  0  0  0  0  0  0  0  0  0
   -2.3341   16.9255   -5.8533 N   0  0  0  0  0  0  0  0  0  0  0  0
   -3.3008   16.4536   -4.8642 C   0  0  0  0  0  0  0  0  0  0  0  0
   -4.5936   17.2697   -4.9318 C   0  0  0  0  0  0  0  0  0  0  0  0
   -5.1602   17.3698   -6.3552 C   0  0  0  0  0  0  0  0  0  0  0  0
   -4.0701   17.8838   -7.3085 C   0  0  0  0  0  0  0  0  0  0  0  0
   -2.7915   17.0510   -7.2324 C   0  0  0  0  0  0  0  0  0  0  0  0
   -5.7548   16.0389   -6.8256 C   0  0  0  0  0  0  0  0  0  0  0  0
    0.6000   11.1051   -3.5849 N   0  0  0  0  0  0  0  0  0  0  0  0
   -0.1730   12.2111   -3.7931 C   0  0  0  0  0  0  0  0  0  0  0  0
   -1.3619   12.0758   -4.0644 O   0  0  0  0  0  0  0  0  0  0  0  0
    0.1349   10.2101   -3.6683 H   0  0  0  0  0  0  0  0  0  0  0  0
    1.5826   11.1097   -3.3681 H   0  0  0  0  0  0  0  0  0  0  0  0
  3  5  1  0  0  0
  4  2  2  0  0  0
  5  6  2  0  0  0
  6  8  1  0  0  0
  7 15  1  0  0  0
  7  1  2  0  0  0
 16 15  1  0  0  0
 16 17  1  0  0  0
 17 18  1  0  0  0
 18 19  1  0  0  0
 18 21  1  0  0  0
 19 20  1  0  0  0
 20 15  1  0  0  0
  9  3  1  0  0  0
  9 10  2  0  0  0
 11 12  2  0  0  0
 12 23  1  0  0  0
 13  8  2  0  0  0
 23 22  1  0  0  0
  4  1  1  0  0  0
  5  2  1  0  0  0
  6  7  1  0  0  0
  8  9  1  0  0  0
 10 11  1  0  0  0
 12 13  1  0  0  0
 23 24  2  0  0  0
  3 14  1  0  0  0
 22 25  1  0  0  0
 22 26  1  0  0  0
M  END
> <minimizedAffinity>
-8.68880

$$$$
CHEMBL3716162


 26 29  0  0  0  0  0  0  0  0999 V2000
   -4.0650   13.3561   -6.0486 N   0  0  0  0  0  0  0  0  0  0  0  0
   -2.6251   11.8586   -4.8119 N   0  0  0  0  0  0  0  0  0  0  0  0
   -0.6853   12.9322   -3.9193 N   0  0  0  0  0  0  0  0  0  0  0  0
   -3.7203   12.1649   -5.5244 C   0  0  0  0  0  0  0  0  0  0  0  0
   -1.8557   12.9395   -4.6233 C   0  0  0  0  0  0  0  0  0  0  0  0
   -2.0835   14.2257   -5.0867 C   0  0  0  0  0  0  0  0  0  0  0  0
   -3.2386   14.4240   -5.8796 C   0  0  0  0  0  0  0  0  0  0  0  0
   -1.0205   15.0360   -4.5618 C   0  0  0  0  0  0  0  0  0  0  0  0
   -0.1449   14.1960   -3.8707 C   0  0  0  0  0  0  0  0  0  0  0  0
    1.0315   14.6576   -3.2684 C   0  0  0  0  0  0  0  0  0  0  0  0
    1.3320   16.0237   -3.3774 C   0  0  0  0  0  0  0  0  0  0  0  0
    0.4704   16.9041   -4.0384 C   0  0  0  0  0  0  0  0  0  0  0  0
   -0.7160   16.4130   -4.6062 C   0  0  0  0  0  0  0  0  0  0  0  0
   -0.2976   12.1057   -3.4913 H   0  0  0  0  0  0  0  0  0  0  0  0
   -3.5762   15.6366   -6.4570 N   0  0  0  0  0  0  0  0  0  0  0  0
   -4.2826   16.6301   -5.6512 C   0  0  0  0  0  0  0  0  0  0  0  0
   -3.3312   17.7374   -5.1922 C   0  0  0  0  0  0  0  0  0  0  0  0
   -2.5178   18.3391   -6.3470 C   0  0  0  0  0  0  0  0  0  0  0  0
   -1.8095   17.2147   -7.1186 C   0  0  0  0  0  0  0  0  0  0  0  0
   -2.7772   16.1242   -7.5753 C   0  0  0  0  0  0  0  0  0  0  0  0
   -3.3862   19.2069   -7.2629 C   0  0  0  0  0  0  0  0  0  0  0  0
    0.7923   19.1600   -3.1050 N   0  0  0  0  0  0  0  0  0  0  0  0
    0.7453   18.3607   -4.2109 C   0  0  0  0  0  0  0  0  0  0  0  0
    0.9397   18.8495   -5.3193 O   0  0  0  0  0  0  0  0  0  0  0  0
    0.9910   20.1391   -3.2669 H   0  0  0  0  0  0  0  0  0  0  0  0
    0.6376   18.8586   -2.1575 H   0  0  0  0  0  0  0  0  0  0  0  0
  3  5  1  0  0  0
  4  2  2  0  0  0
  5  6  2  0  0  0
  6  8  1  0  0  0
  7 15  1  0  0  0
  7  1  2  0  0  0
 16 15  1  0  0  0
 16 17  1  0  0  0
 17 18  1  0  0  0
 18 19  1  0  0  0
 18 21  1  0  0  0
 19 20  1  0  0  0
 20 15  1  0  0  0
  9  3  1  0  0  0
  9 10  2  0  0  0
 11 12  2  0  0  0
 12 23  1  0  0  0
 13  8  2  0  0  0
 23 22  1  0  0  0
  4  1  1  0  0  0
  5  2  1  0  0  0
  6  7  1  0  0  0
  8  9  1  0  0  0
 10 11  1  0  0  0
 12 13  1  0  0  0
 23 24  2  0  0  0
  3 14  1  0  0  0
 22 25  1  0  0  0
 22 26  1  0  0  0
M  END
> <minimizedAffinity>
-8.55959

$$$$
CHEMBL3716162


 26 29  0  0  0  0  0  0  0  0999 V2000
    0.8665   17.9413   -3.7287 N   0  0  0  0  0  0  0  0  0  0  0  0
    2.2455   16.2246   -2.7303 N   0  0  0  0  0  0  0  0  0  0  0  0
    1.3920   14.0161   -3.0557 N   0  0  0  0  0  0  0  0  0  0  0  0
    1.9390   17.4912   -3.0508 C   0  0  0  0  0  0  0  0  0  0  0  0
    1.3314   15.3716   -3.2125 C   0  0  0  0  0  0  0  0  0  0  0  0
    0.1897   15.6814   -3.9346 C   0  0  0  0  0  0  0  0  0  0  0  0
   -0.0684   17.0534   -4.1644 C   0  0  0  0  0  0  0  0  0  0  0  0
   -0.4170   14.4276   -4.2843 C   0  0  0  0  0  0  0  0  0  0  0  0
    0.3332   13.4102   -3.6910 C   0  0  0  0  0  0  0  0  0  0  0  0
   -0.0099   12.0569   -3.7936 C   0  0  0  0  0  0  0  0  0  0  0  0
   -1.1623   11.7256   -4.5222 C   0  0  0  0  0  0  0  0  0  0  0  0
   -1.9278   12.7105   -5.1534 C   0  0  0  0  0  0  0  0  0  0  0  0
   -1.5390   14.0559   -5.0548 C   0  0  0  0  0  0  0  0  0  0  0  0
    2.1279   13.5457   -2.5520 H   0  0  0  0  0  0  0  0  0  0  0  0
   -1.1913   17.5250   -4.8236 N   0  0  0  0  0  0  0  0  0  0  0  0
   -1.1532   17.6556   -6.2786 C   0  0  0  0  0  0  0  0  0  0  0  0
   -1.9140   16.5099   -6.9497 C   0  0  0  0  0  0  0  0  0  0  0  0
   -3.3271   16.3201   -6.3801 C   0  0  0  0  0  0  0  0  0  0  0  0
   -3.2520   16.1825   -4.8515 C   0  0  0  0  0  0  0  0  0  0  0  0
   -2.4966   17.3397   -4.2001 C   0  0  0  0  0  0  0  0  0  0  0  0
   -4.2701   17.4478   -6.8105 C   0  0  0  0  0  0  0  0  0  0  0  0
   -3.9708   11.3874   -5.5275 N   0  0  0  0  0  0  0  0  0  0  0  0
   -3.1763   12.4261   -5.9199 C   0  0  0  0  0  0  0  0  0  0  0  0
   -3.5067   13.1099   -6.8836 O   0  0  0  0  0  0  0  0  0  0  0  0
   -4.8121   11.2362   -6.0693 H   0  0  0  0  0  0  0  0  0  0  0  0
   -3.7835   10.7642   -4.7599 H   0  0  0  0  0  0  0  0  0  0  0  0
  3  5  1  0  0  0
  4  2  2  0  0  0
  5  6  2  0  0  0
  6  8  1  0  0  0
  7 15  1  0  0  0
  7  1  2  0  0  0
 16 15  1  0  0  0
 16 17  1  0  0  0
 17 18  1  0  0  0
 18 19  1  0  0  0
 18 21  1  0  0  0
 19 20  1  0  0  0
 20 15  1  0  0  0
  9  3  1  0  0  0
  9 10  2  0  0  0
 11 12  2  0  0  0
 12 23  1  0  0  0
 13  8  2  0  0  0
 23 22  1  0  0  0
  4  1  1  0  0  0
  5  2  1  0  0  0
  6  7  1  0  0  0
  8  9  1  0  0  0
 10 11  1  0  0  0
 12 13  1  0  0  0
 23 24  2  0  0  0
  3 14  1  0  0  0
 22 25  1  0  0  0
 22 26  1  0  0  0
M  END
> <minimizedAffinity>
-8.35939

$$$$
CHEMBL3716162


 26 29  0  0  0  0  0  0  0  0999 V2000
    1.3911   15.9145   -3.3118 N   0  0  0  0  0  0  0  0  0  0  0  0
    1.5684   13.5082   -3.1582 N   0  0  0  0  0  0  0  0  0  0  0  0
   -0.3398   12.3607   -4.0262 N   0  0  0  0  0  0  0  0  0  0  0  0
    2.0165   14.7634   -3.0013 C   0  0  0  0  0  0  0  0  0  0  0  0
    0.3562   13.4977   -3.7290 C   0  0  0  0  0  0  0  0  0  0  0  0
   -0.4020   14.5922   -4.1141 C   0  0  0  0  0  0  0  0  0  0  0  0
    0.1406   15.8713   -3.8469 C   0  0  0  0  0  0  0  0  0  0  0  0
   -1.5812   14.0636   -4.7405 C   0  0  0  0  0  0  0  0  0  0  0  0
   -1.5323   12.6719   -4.6368 C   0  0  0  0  0  0  0  0  0  0  0  0
   -2.5548   11.8402   -5.1083 C   0  0  0  0  0  0  0  0  0  0  0  0
   -3.6720   12.4463   -5.7026 C   0  0  0  0  0  0  0  0  0  0  0  0
   -3.7501   13.8343   -5.8495 C   0  0  0  0  0  0  0  0  0  0  0  0
   -2.6935   14.6375   -5.3919 C   0  0  0  0  0  0  0  0  0  0  0  0
   -0.0005   11.4319   -3.8289 H   0  0  0  0  0  0  0  0  0  0  0  0
   -0.5159   17.0586   -4.1247 N   0  0  0  0  0  0  0  0  0  0  0  0
    0.1164   18.3205   -3.7463 C   0  0  0  0  0  0  0  0  0  0  0  0
    0.7297   19.0113   -4.9664 C   0  0  0  0  0  0  0  0  0  0  0  0
   -0.2561   19.1371   -6.1367 C   0  0  0  0  0  0  0  0  0  0  0  0
   -0.8520   17.7579   -6.4587 C   0  0  0  0  0  0  0  0  0  0  0  0
   -1.4665   17.0889   -5.2303 C   0  0  0  0  0  0  0  0  0  0  0  0
   -1.3411   20.1814   -5.8566 C   0  0  0  0  0  0  0  0  0  0  0  0
   -4.7011   15.4929   -7.4015 N   0  0  0  0  0  0  0  0  0  0  0  0
   -4.9206   14.5404   -6.4483 C   0  0  0  0  0  0  0  0  0  0  0  0
   -6.0702   14.2758   -6.1109 O   0  0  0  0  0  0  0  0  0  0  0  0
   -5.5232   15.9397   -7.7874 H   0  0  0  0  0  0  0  0  0  0  0  0
   -3.7998   15.7880   -7.7381 H   0  0  0  0  0  0  0  0  0  0  0  0
  3  5  1  0  0  0
  4  2  2  0  0  0
  5  6  2  0  0  0
  6  8  1  0  0  0
  7 15  1  0  0  0
  7  1  2  0  0  0
 16 15  1  0  0  0
 16 17  1  0  0  0
 17 18  1  0  0  0
 18 19  1  0  0  0
 18 21  1  0  0  0
 19 20  1  0  0  0
 20 15  1  0  0  0
  9  3  1  0  0  0
  9 10  2  0  0  0
 11 12  2  0  0  0
 12 23  1  0  0  0
 13  8  2  0  0  0
 23 22  1  0  0  0
  4  1  1  0  0  0
  5  2  1  0  0  0
  6  7  1  0  0  0
  8  9  1  0  0  0
 10 11  1  0  0  0
 12 13  1  0  0  0
 23 24  2  0  0  0
  3 14  1  0  0  0
 22 25  1  0  0  0
 22 26  1  0  0  0
M  END
> <minimizedAffinity>
-8.27215

$$$$
CHEMBL3715037


 27 30  0  0  0  0  0  0  0  0999 V2000
   -3.4363   13.6323   -5.9973 N   0  0  0  0  0  0  0  0  0  0  0  0
   -2.0344   11.8988   -5.0633 N   0  0  0  0  0  0  0  0  0  0  0  0
   -0.1473   12.7479   -3.8654 N   0  0  0  0  0  0  0  0  0  0  0  0
   -3.0834   12.3537   -5.7654 C   0  0  0  0  0  0  0  0  0  0  0  0
   -1.2908   12.9107   -4.5957 C   0  0  0  0  0  0  0  0  0  0  0  0
   -1.5230   14.2678   -4.7567 C   0  0  0  0  0  0  0  0  0  0  0  0
   -2.6856   14.6372   -5.4726 C   0  0  0  0  0  0  0  0  0  0  0  0
   -0.4148   14.9383   -4.1411 C   0  0  0  0  0  0  0  0  0  0  0  0
    0.4143   13.9690   -3.5737 C   0  0  0  0  0  0  0  0  0  0  0  0
    1.5856   14.2888   -2.8768 C   0  0  0  0  0  0  0  0  0  0  0  0
    1.9208   15.6448   -2.7560 C   0  0  0  0  0  0  0  0  0  0  0  0
    1.1299   16.6474   -3.3256 C   0  0  0  0  0  0  0  0  0  0  0  0
   -0.0224   16.2887   -4.0337 C   0  0  0  0  0  0  0  0  0  0  0  0
    0.2307   11.8479   -3.6115 H   0  0  0  0  0  0  0  0  0  0  0  0
   -3.0975   15.9469   -5.6723 N   0  0  0  0  0  0  0  0  0  0  0  0
   -3.9646   16.5626   -4.6777 C   0  0  0  0  0  0  0  0  0  0  0  0
   -5.2328   17.1153   -5.3096 C   0  0  0  0  0  0  0  0  0  0  0  0
   -4.8809   18.0734   -6.4361 C   0  0  0  0  0  0  0  0  0  0  0  0
   -4.0653   17.3535   -7.5024 C   0  0  0  0  0  0  0  0  0  0  0  0
   -2.8566   16.5555   -6.9836 C   0  0  0  0  0  0  0  0  0  0  0  0
   -1.5238   17.3348   -6.9980 C   0  0  0  0  0  0  0  0  0  0  0  0
   -1.5366   18.7507   -6.4463 C   0  0  0  0  0  0  0  0  0  0  0  0
    0.6560   19.0600   -3.4748 N   0  0  0  0  0  0  0  0  0  0  0  0
    1.5481   18.0704   -3.1612 C   0  0  0  0  0  0  0  0  0  0  0  0
    2.6620   18.3651   -2.7416 O   0  0  0  0  0  0  0  0  0  0  0  0
    0.9706   20.0133   -3.3483 H   0  0  0  0  0  0  0  0  0  0  0  0
   -0.2843   18.9204   -3.8066 H   0  0  0  0  0  0  0  0  0  0  0  0
  3  5  1  0  0  0
  4  2  2  0  0  0
  5  6  2  0  0  0
  6  8  1  0  0  0
  7 15  1  0  0  0
  7  1  2  0  0  0
 16 15  1  0  0  0
 16 17  1  0  0  0
 17 18  1  0  0  0
 18 19  1  0  0  0
 19 20  1  0  0  0
 20 21  1  0  0  0
 20 15  1  0  0  0
 21 22  1  0  0  0
  9  3  1  0  0  0
  9 10  2  0  0  0
 11 12  2  0  0  0
 12 24  1  0  0  0
 13  8  2  0  0  0
 24 23  1  0  0  0
  4  1  1  0  0  0
  5  2  1  0  0  0
  6  7  1  0  0  0
  8  9  1  0  0  0
 10 11  1  0  0  0
 12 13  1  0  0  0
 24 25  2  0  0  0
  3 14  1  0  0  0
 23 26  1  0  0  0
 23 27  1  0  0  0
M  END
> <minimizedAffinity>
-9.65881

$$$$
CHEMBL3715037


 27 30  0  0  0  0  0  0  0  0999 V2000
   -3.5594   13.4514   -6.3047 N   0  0  0  0  0  0  0  0  0  0  0  0
   -2.4487   11.5716   -5.2676 N   0  0  0  0  0  0  0  0  0  0  0  0
   -0.5256   12.1931   -3.9900 N   0  0  0  0  0  0  0  0  0  0  0  0
   -3.3922   12.1436   -6.0312 C   0  0  0  0  0  0  0  0  0  0  0  0
   -1.6002   12.4876   -4.7812 C   0  0  0  0  0  0  0  0  0  0  0  0
   -1.6409   13.8589   -4.9792 C   0  0  0  0  0  0  0  0  0  0  0  0
   -2.7075   14.3610   -5.7608 C   0  0  0  0  0  0  0  0  0  0  0  0
   -0.4842   14.3920   -4.3198 C   0  0  0  0  0  0  0  0  0  0  0  0
    0.1792   13.3360   -3.6925 C   0  0  0  0  0  0  0  0  0  0  0  0
    1.3475   13.5153   -2.9423 C   0  0  0  0  0  0  0  0  0  0  0  0
    1.8547   14.8175   -2.8295 C   0  0  0  0  0  0  0  0  0  0  0  0
    1.2336   15.9014   -3.4577 C   0  0  0  0  0  0  0  0  0  0  0  0
    0.0795   15.6807   -4.2175 C   0  0  0  0  0  0  0  0  0  0  0  0
   -0.2840   11.2577   -3.7003 H   0  0  0  0  0  0  0  0  0  0  0  0
   -2.9305   15.7082   -6.0058 N   0  0  0  0  0  0  0  0  0  0  0  0
   -2.3887   16.2924   -7.2245 C   0  0  0  0  0  0  0  0  0  0  0  0
   -1.5263   17.5085   -6.9240 C   0  0  0  0  0  0  0  0  0  0  0  0
   -2.3137   18.5181   -6.1045 C   0  0  0  0  0  0  0  0  0  0  0  0
   -2.7660   17.8908   -4.7920 C   0  0  0  0  0  0  0  0  0  0  0  0
   -3.4705   16.5290   -4.9183 C   0  0  0  0  0  0  0  0  0  0  0  0
   -5.0102   16.6120   -4.9968 C   0  0  0  0  0  0  0  0  0  0  0  0
   -5.6130   17.2497   -6.2374 C   0  0  0  0  0  0  0  0  0  0  0  0
    3.0651   17.3741   -2.7202 N   0  0  0  0  0  0  0  0  0  0  0  0
    1.8297   17.2601   -3.2985 C   0  0  0  0  0  0  0  0  0  0  0  0
    1.2430   18.2650   -3.6852 O   0  0  0  0  0  0  0  0  0  0  0  0
    3.4413   18.3091   -2.6309 H   0  0  0  0  0  0  0  0  0  0  0  0
    3.6323   16.6107   -2.3897 H   0  0  0  0  0  0  0  0  0  0  0  0
  3  5  1  0  0  0
  4  2  2  0  0  0
  5  6  2  0  0  0
  6  8  1  0  0  0
  7 15  1  0  0  0
  7  1  2  0  0  0
 16 15  1  0  0  0
 16 17  1  0  0  0
 17 18  1  0  0  0
 18 19  1  0  0  0
 19 20  1  0  0  0
 20 21  1  0  0  0
 20 15  1  0  0  0
 21 22  1  0  0  0
  9  3  1  0  0  0
  9 10  2  0  0  0
 11 12  2  0  0  0
 12 24  1  0  0  0
 13  8  2  0  0  0
 24 23  1  0  0  0
  4  1  1  0  0  0
  5  2  1  0  0  0
  6  7  1  0  0  0
  8  9  1  0  0  0
 10 11  1  0  0  0
 12 13  1  0  0  0
 24 25  2  0  0  0
  3 14  1  0  0  0
 23 26  1  0  0  0
 23 27  1  0  0  0
M  END
> <minimizedAffinity>
-9.55194

$$$$
CHEMBL3715037


 27 30  0  0  0  0  0  0  0  0999 V2000
    0.1001   17.9232   -3.8059 N   0  0  0  0  0  0  0  0  0  0  0  0
    1.7864   16.4271   -2.9335 N   0  0  0  0  0  0  0  0  0  0  0  0
    1.3020   14.1191   -3.3274 N   0  0  0  0  0  0  0  0  0  0  0  0
    1.2443   17.6339   -3.1577 C   0  0  0  0  0  0  0  0  0  0  0  0
    1.0132   15.4509   -3.4284 C   0  0  0  0  0  0  0  0  0  0  0  0
   -0.1854   15.5930   -4.1100 C   0  0  0  0  0  0  0  0  0  0  0  0
   -0.6407   16.9131   -4.3350 C   0  0  0  0  0  0  0  0  0  0  0  0
   -0.6597   14.2638   -4.3650 C   0  0  0  0  0  0  0  0  0  0  0  0
    0.2971   13.3659   -3.8882 C   0  0  0  0  0  0  0  0  0  0  0  0
    0.1513   11.9776   -3.9942 C   0  0  0  0  0  0  0  0  0  0  0  0
   -1.0114   11.4907   -4.6080 C   0  0  0  0  0  0  0  0  0  0  0  0
   -2.0046   12.3534   -5.0820 C   0  0  0  0  0  0  0  0  0  0  0  0
   -1.8343   13.7349   -4.9391 C   0  0  0  0  0  0  0  0  0  0  0  0
    2.1281   13.7587   -2.8746 H   0  0  0  0  0  0  0  0  0  0  0  0
   -1.7853   17.2340   -5.0501 N   0  0  0  0  0  0  0  0  0  0  0  0
   -3.0733   17.1479   -4.3765 C   0  0  0  0  0  0  0  0  0  0  0  0
   -4.0437   16.2605   -5.1407 C   0  0  0  0  0  0  0  0  0  0  0  0
   -4.1776   16.7461   -6.5749 C   0  0  0  0  0  0  0  0  0  0  0  0
   -2.8217   16.7154   -7.2686 C   0  0  0  0  0  0  0  0  0  0  0  0
   -1.6719   17.3924   -6.5027 C   0  0  0  0  0  0  0  0  0  0  0  0
   -1.4342   18.8696   -6.8837 C   0  0  0  0  0  0  0  0  0  0  0  0
   -2.3793   19.9036   -6.2948 C   0  0  0  0  0  0  0  0  0  0  0  0
   -4.3825   12.4866   -5.7107 N   0  0  0  0  0  0  0  0  0  0  0  0
   -3.2184   11.7666   -5.7216 C   0  0  0  0  0  0  0  0  0  0  0  0
   -3.1875   10.6668   -6.2630 O   0  0  0  0  0  0  0  0  0  0  0  0
   -5.1851   12.0610   -6.1561 H   0  0  0  0  0  0  0  0  0  0  0  0
   -4.5035   13.4026   -5.3106 H   0  0  0  0  0  0  0  0  0  0  0  0
  3  5  1  0  0  0
  4  2  2  0  0  0
  5  6  2  0  0  0
  6  8  1  0  0  0
  7 15  1  0  0  0
  7  1  2  0  0  0
 16 15  1  0  0  0
 16 17  1  0  0  0
 17 18  1  0  0  0
 18 19  1  0  0  0
 19 20  1  0  0  0
 20 21  1  0  0  0
 20 15  1  0  0  0
 21 22  1  0  0  0
  9  3  1  0  0  0
  9 10  2  0  0  0
 11 12  2  0  0  0
 12 24  1  0  0  0
 13  8  2  0  0  0
 24 23  1  0  0  0
  4  1  1  0  0  0
  5  2  1  0  0  0
  6  7  1  0  0  0
  8  9  1  0  0  0
 10 11  1  0  0  0
 12 13  1  0  0  0
 24 25  2  0  0  0
  3 14  1  0  0  0
 23 26  1  0  0  0
 23 27  1  0  0  0
M  END
> <minimizedAffinity>
-9.23995

$$$$
CHEMBL3715037


 27 30  0  0  0  0  0  0  0  0999 V2000
    0.1100   19.2797   -4.0561 N   0  0  0  0  0  0  0  0  0  0  0  0
    2.2384   18.8114   -3.0104 N   0  0  0  0  0  0  0  0  0  0  0  0
    2.6915   16.4744   -2.7869 N   0  0  0  0  0  0  0  0  0  0  0  0
    1.2718   19.6219   -3.4678 C   0  0  0  0  0  0  0  0  0  0  0  0
    1.9089   17.5236   -3.1794 C   0  0  0  0  0  0  0  0  0  0  0  0
    0.7543   17.0213   -3.7592 C   0  0  0  0  0  0  0  0  0  0  0  0
   -0.1763   17.9651   -4.2529 C   0  0  0  0  0  0  0  0  0  0  0  0
    0.8355   15.5944   -3.6394 C   0  0  0  0  0  0  0  0  0  0  0  0
    2.0623   15.2804   -3.0517 C   0  0  0  0  0  0  0  0  0  0  0  0
    2.4680   13.9635   -2.8046 C   0  0  0  0  0  0  0  0  0  0  0  0
    1.5903   12.9331   -3.1702 C   0  0  0  0  0  0  0  0  0  0  0  0
    0.3436   13.2029   -3.7431 C   0  0  0  0  0  0  0  0  0  0  0  0
   -0.0371   14.5325   -3.9553 C   0  0  0  0  0  0  0  0  0  0  0  0
    3.5893   16.5827   -2.3403 H   0  0  0  0  0  0  0  0  0  0  0  0
   -1.3503   17.6334   -4.9135 N   0  0  0  0  0  0  0  0  0  0  0  0
   -2.4612   17.1050   -4.1345 C   0  0  0  0  0  0  0  0  0  0  0  0
   -2.9438   15.7721   -4.6852 C   0  0  0  0  0  0  0  0  0  0  0  0
   -3.2907   15.9100   -6.1588 C   0  0  0  0  0  0  0  0  0  0  0  0
   -2.0674   16.3615   -6.9463 C   0  0  0  0  0  0  0  0  0  0  0  0
   -1.3305   17.5868   -6.3782 C   0  0  0  0  0  0  0  0  0  0  0  0
   -1.7754   18.9358   -6.9831 C   0  0  0  0  0  0  0  0  0  0  0  0
   -3.2492   19.2930   -6.8855 C   0  0  0  0  0  0  0  0  0  0  0  0
   -1.8130   12.3193   -4.5405 N   0  0  0  0  0  0  0  0  0  0  0  0
   -0.5421   12.0576   -4.1046 C   0  0  0  0  0  0  0  0  0  0  0  0
   -0.1501   10.8981   -4.0310 O   0  0  0  0  0  0  0  0  0  0  0  0
   -2.3854   11.5203   -4.7805 H   0  0  0  0  0  0  0  0  0  0  0  0
   -2.2192   13.2337   -4.6533 H   0  0  0  0  0  0  0  0  0  0  0  0
  3  5  1  0  0  0
  4  2  2  0  0  0
  5  6  2  0  0  0
  6  8  1  0  0  0
  7 15  1  0  0  0
  7  1  2  0  0  0
 16 15  1  0  0  0
 16 17  1  0  0  0
 17 18  1  0  0  0
 18 19  1  0  0  0
 19 20  1  0  0  0
 20 21  1  0  0  0
 20 15  1  0  0  0
 21 22  1  0  0  0
  9  3  1  0  0  0
  9 10  2  0  0  0
 11 12  2  0  0  0
 12 24  1  0  0  0
 13  8  2  0  0  0
 24 23  1  0  0  0
  4  1  1  0  0  0
  5  2  1  0  0  0
  6  7  1  0  0  0
  8  9  1  0  0  0
 10 11  1  0  0  0
 12 13  1  0  0  0
 24 25  2  0  0  0
  3 14  1  0  0  0
 23 26  1  0  0  0
 23 27  1  0  0  0
M  END
> <minimizedAffinity>
-9.00587

$$$$
CHEMBL3715037


 27 30  0  0  0  0  0  0  0  0999 V2000
   -1.4222   14.1301   -4.6810 N   0  0  0  0  0  0  0  0  0  0  0  0
    0.5664   13.4618   -3.4802 N   0  0  0  0  0  0  0  0  0  0  0  0
    1.9198   15.3064   -2.7857 N   0  0  0  0  0  0  0  0  0  0  0  0
   -0.5713   13.2300   -4.1529 C   0  0  0  0  0  0  0  0  0  0  0  0
    0.8180   14.7752   -3.3949 C   0  0  0  0  0  0  0  0  0  0  0  0
    0.0436   15.8125   -3.8906 C   0  0  0  0  0  0  0  0  0  0  0  0
   -1.1616   15.4572   -4.5400 C   0  0  0  0  0  0  0  0  0  0  0  0
    0.7677   17.0191   -3.6135 C   0  0  0  0  0  0  0  0  0  0  0  0
    1.9203   16.6766   -2.9041 C   0  0  0  0  0  0  0  0  0  0  0  0
    2.8469   17.6280   -2.4613 C   0  0  0  0  0  0  0  0  0  0  0  0
    2.5869   18.9744   -2.7534 C   0  0  0  0  0  0  0  0  0  0  0  0
    1.4551   19.3603   -3.4783 C   0  0  0  0  0  0  0  0  0  0  0  0
    0.5620   18.3794   -3.9235 C   0  0  0  0  0  0  0  0  0  0  0  0
    2.6359   14.7515   -2.3424 H   0  0  0  0  0  0  0  0  0  0  0  0
   -2.0793   16.3701   -5.0390 N   0  0  0  0  0  0  0  0  0  0  0  0
   -3.1235   16.8624   -4.1516 C   0  0  0  0  0  0  0  0  0  0  0  0
   -4.5068   16.6498   -4.7469 C   0  0  0  0  0  0  0  0  0  0  0  0
   -4.5839   17.2793   -6.1284 C   0  0  0  0  0  0  0  0  0  0  0  0
   -3.5434   16.6546   -7.0490 C   0  0  0  0  0  0  0  0  0  0  0  0
   -2.1125   16.5967   -6.4866 C   0  0  0  0  0  0  0  0  0  0  0  0
   -1.2227   17.7950   -6.8819 C   0  0  0  0  0  0  0  0  0  0  0  0
   -1.8116   19.1862   -6.7186 C   0  0  0  0  0  0  0  0  0  0  0  0
    0.0566   21.2080   -4.3134 N   0  0  0  0  0  0  0  0  0  0  0  0
    1.2422   20.8108   -3.7566 C   0  0  0  0  0  0  0  0  0  0  0  0
    2.0979   21.6462   -3.4855 O   0  0  0  0  0  0  0  0  0  0  0  0
   -0.0562   22.1987   -4.4856 H   0  0  0  0  0  0  0  0  0  0  0  0
   -0.7122   20.6035   -4.5530 H   0  0  0  0  0  0  0  0  0  0  0  0
  3  5  1  0  0  0
  4  2  2  0  0  0
  5  6  2  0  0  0
  6  8  1  0  0  0
  7 15  1  0  0  0
  7  1  2  0  0  0
 16 15  1  0  0  0
 16 17  1  0  0  0
 17 18  1  0  0  0
 18 19  1  0  0  0
 19 20  1  0  0  0
 20 21  1  0  0  0
 20 15  1  0  0  0
 21 22  1  0  0  0
  9  3  1  0  0  0
  9 10  2  0  0  0
 11 12  2  0  0  0
 12 24  1  0  0  0
 13  8  2  0  0  0
 24 23  1  0  0  0
  4  1  1  0  0  0
  5  2  1  0  0  0
  6  7  1  0  0  0
  8  9  1  0  0  0
 10 11  1  0  0  0
 12 13  1  0  0  0
 24 25  2  0  0  0
  3 14  1  0  0  0
 23 26  1  0  0  0
 23 27  1  0  0  0
M  END
> <minimizedAffinity>
-8.63188

$$$$
CHEMBL3715037


 27 30  0  0  0  0  0  0  0  0999 V2000
    1.2646   16.1637   -3.1645 N   0  0  0  0  0  0  0  0  0  0  0  0
    1.8219   13.8163   -3.0154 N   0  0  0  0  0  0  0  0  0  0  0  0
    0.1787   12.3869   -4.0021 N   0  0  0  0  0  0  0  0  0  0  0  0
    2.0351   15.1228   -2.7958 C   0  0  0  0  0  0  0  0  0  0  0  0
    0.6664   13.6179   -3.6643 C   0  0  0  0  0  0  0  0  0  0  0  0
   -0.2282   14.5828   -4.1005 C   0  0  0  0  0  0  0  0  0  0  0  0
    0.1194   15.9326   -3.8602 C   0  0  0  0  0  0  0  0  0  0  0  0
   -1.3368   13.8718   -4.6683 C   0  0  0  0  0  0  0  0  0  0  0  0
   -1.0464   12.5074   -4.6153 C   0  0  0  0  0  0  0  0  0  0  0  0
   -1.9190   11.5284   -5.1053 C   0  0  0  0  0  0  0  0  0  0  0  0
   -3.1290   11.9585   -5.6682 C   0  0  0  0  0  0  0  0  0  0  0  0
   -3.4691   13.3136   -5.7238 C   0  0  0  0  0  0  0  0  0  0  0  0
   -2.5814   14.2624   -5.2044 C   0  0  0  0  0  0  0  0  0  0  0  0
    0.6533   11.5213   -3.7951 H   0  0  0  0  0  0  0  0  0  0  0  0
   -0.6311   17.0202   -4.2828 N   0  0  0  0  0  0  0  0  0  0  0  0
   -2.0048   17.1410   -3.8155 C   0  0  0  0  0  0  0  0  0  0  0  0
   -2.9779   17.2806   -4.9759 C   0  0  0  0  0  0  0  0  0  0  0  0
   -2.5693   18.4449   -5.8637 C   0  0  0  0  0  0  0  0  0  0  0  0
   -1.1667   18.2192   -6.4135 C   0  0  0  0  0  0  0  0  0  0  0  0
   -0.0994   17.8471   -5.3697 C   0  0  0  0  0  0  0  0  0  0  0  0
    0.6969   19.0482   -4.8156 C   0  0  0  0  0  0  0  0  0  0  0  0
    0.5870   20.3651   -5.5657 C   0  0  0  0  0  0  0  0  0  0  0  0
   -5.8633   12.8967   -6.1256 N   0  0  0  0  0  0  0  0  0  0  0  0
   -4.7750   13.7005   -6.3334 C   0  0  0  0  0  0  0  0  0  0  0  0
   -4.8916   14.7233   -6.9997 O   0  0  0  0  0  0  0  0  0  0  0  0
   -6.7336   13.1902   -6.5500 H   0  0  0  0  0  0  0  0  0  0  0  0
   -5.8737   12.0507   -5.5798 H   0  0  0  0  0  0  0  0  0  0  0  0
  3  5  1  0  0  0
  4  2  2  0  0  0
  5  6  2  0  0  0
  6  8  1  0  0  0
  7 15  1  0  0  0
  7  1  2  0  0  0
 16 15  1  0  0  0
 16 17  1  0  0  0
 17 18  1  0  0  0
 18 19  1  0  0  0
 19 20  1  0  0  0
 20 21  1  0  0  0
 20 15  1  0  0  0
 21 22  1  0  0  0
  9  3  1  0  0  0
  9 10  2  0  0  0
 11 12  2  0  0  0
 12 24  1  0  0  0
 13  8  2  0  0  0
 24 23  1  0  0  0
  4  1  1  0  0  0
  5  2  1  0  0  0
  6  7  1  0  0  0
  8  9  1  0  0  0
 10 11  1  0  0  0
 12 13  1  0  0  0
 24 25  2  0  0  0
  3 14  1  0  0  0
 23 26  1  0  0  0
 23 27  1  0  0  0
M  END
> <minimizedAffinity>
-8.54584

$$$$
CHEMBL3715037


 27 30  0  0  0  0  0  0  0  0999 V2000
   -1.9895   17.9252   -5.9869 N   0  0  0  0  0  0  0  0  0  0  0  0
   -4.0438   19.1975   -6.0494 N   0  0  0  0  0  0  0  0  0  0  0  0
   -6.0062   17.8369   -5.9278 N   0  0  0  0  0  0  0  0  0  0  0  0
   -2.7092   19.0599   -6.0733 C   0  0  0  0  0  0  0  0  0  0  0  0
   -4.6504   18.0068   -5.9507 C   0  0  0  0  0  0  0  0  0  0  0  0
   -4.0473   16.7620   -5.8595 C   0  0  0  0  0  0  0  0  0  0  0  0
   -2.6332   16.7361   -5.8436 C   0  0  0  0  0  0  0  0  0  0  0  0
   -5.1126   15.8019   -5.8493 C   0  0  0  0  0  0  0  0  0  0  0  0
   -6.3217   16.4996   -5.8689 C   0  0  0  0  0  0  0  0  0  0  0  0
   -7.5659   15.8581   -5.8499 C   0  0  0  0  0  0  0  0  0  0  0  0
   -7.5746   14.4567   -5.8098 C   0  0  0  0  0  0  0  0  0  0  0  0
   -6.3876   13.7175   -5.8090 C   0  0  0  0  0  0  0  0  0  0  0  0
   -5.1627   14.3925   -5.8504 C   0  0  0  0  0  0  0  0  0  0  0  0
   -6.6661   18.5980   -5.9778 H   0  0  0  0  0  0  0  0  0  0  0  0
   -1.8740   15.5842   -5.6970 N   0  0  0  0  0  0  0  0  0  0  0  0
   -1.7590   14.6780   -6.8308 C   0  0  0  0  0  0  0  0  0  0  0  0
   -2.1711   13.2625   -6.4570 C   0  0  0  0  0  0  0  0  0  0  0  0
   -1.3699   12.7845   -5.2569 C   0  0  0  0  0  0  0  0  0  0  0  0
   -1.6084   13.7042   -4.0662 C   0  0  0  0  0  0  0  0  0  0  0  0
   -1.4420   15.2075   -4.3481 C   0  0  0  0  0  0  0  0  0  0  0  0
   -0.0345   15.7624   -4.0403 C   0  0  0  0  0  0  0  0  0  0  0  0
    0.9207   14.8599   -3.2772 C   0  0  0  0  0  0  0  0  0  0  0  0
   -7.3882   11.5975   -6.5651 N   0  0  0  0  0  0  0  0  0  0  0  0
   -6.4706   12.2281   -5.7689 C   0  0  0  0  0  0  0  0  0  0  0  0
   -5.7290   11.5655   -5.0516 O   0  0  0  0  0  0  0  0  0  0  0  0
   -7.4155   10.5872   -6.5160 H   0  0  0  0  0  0  0  0  0  0  0  0
   -8.0254   12.0500   -7.1999 H   0  0  0  0  0  0  0  0  0  0  0  0
  3  5  1  0  0  0
  4  2  2  0  0  0
  5  6  2  0  0  0
  6  8  1  0  0  0
  7 15  1  0  0  0
  7  1  2  0  0  0
 16 15  1  0  0  0
 16 17  1  0  0  0
 17 18  1  0  0  0
 18 19  1  0  0  0
 19 20  1  0  0  0
 20 21  1  0  0  0
 20 15  1  0  0  0
 21 22  1  0  0  0
  9  3  1  0  0  0
  9 10  2  0  0  0
 11 12  2  0  0  0
 12 24  1  0  0  0
 13  8  2  0  0  0
 24 23  1  0  0  0
  4  1  1  0  0  0
  5  2  1  0  0  0
  6  7  1  0  0  0
  8  9  1  0  0  0
 10 11  1  0  0  0
 12 13  1  0  0  0
 24 25  2  0  0  0
  3 14  1  0  0  0
 23 26  1  0  0  0
 23 27  1  0  0  0
M  END
> <minimizedAffinity>
-8.48176

$$$$
CHEMBL3715037


 27 30  0  0  0  0  0  0  0  0999 V2000
   -1.4741   19.3667   -6.2722 N   0  0  0  0  0  0  0  0  0  0  0  0
   -2.2572   21.5623   -6.9119 N   0  0  0  0  0  0  0  0  0  0  0  0
   -4.4622   21.5507   -7.8364 N   0  0  0  0  0  0  0  0  0  0  0  0
   -1.3519   20.6988   -6.4269 C   0  0  0  0  0  0  0  0  0  0  0  0
   -3.3774   20.9288   -7.2852 C   0  0  0  0  0  0  0  0  0  0  0  0
   -3.6453   19.5718   -7.1930 C   0  0  0  0  0  0  0  0  0  0  0  0
   -2.6397   18.7589   -6.6200 C   0  0  0  0  0  0  0  0  0  0  0  0
   -4.9367   19.3786   -7.7860 C   0  0  0  0  0  0  0  0  0  0  0  0
   -5.4324   20.6300   -8.1565 C   0  0  0  0  0  0  0  0  0  0  0  0
   -6.6869   20.8003   -8.7540 C   0  0  0  0  0  0  0  0  0  0  0  0
   -7.4607   19.6532   -8.9805 C   0  0  0  0  0  0  0  0  0  0  0  0
   -6.9951   18.3785   -8.6434 C   0  0  0  0  0  0  0  0  0  0  0  0
   -5.7269   18.2449   -8.0676 C   0  0  0  0  0  0  0  0  0  0  0  0
   -4.5122   22.5441   -8.0036 H   0  0  0  0  0  0  0  0  0  0  0  0
   -2.7686   17.3954   -6.3986 N   0  0  0  0  0  0  0  0  0  0  0  0
   -2.2466   16.4759   -7.3997 C   0  0  0  0  0  0  0  0  0  0  0  0
   -3.3116   15.4946   -7.8642 C   0  0  0  0  0  0  0  0  0  0  0  0
   -3.9071   14.7656   -6.6706 C   0  0  0  0  0  0  0  0  0  0  0  0
   -4.5351   15.7633   -5.7057 C   0  0  0  0  0  0  0  0  0  0  0  0
   -3.6415   16.9510   -5.3085 C   0  0  0  0  0  0  0  0  0  0  0  0
   -2.8398   16.7386   -4.0062 C   0  0  0  0  0  0  0  0  0  0  0  0
   -1.5902   15.8779   -4.0877 C   0  0  0  0  0  0  0  0  0  0  0  0
   -8.0481   16.7978  -10.2118 N   0  0  0  0  0  0  0  0  0  0  0  0
   -7.8698   17.2006   -8.9159 C   0  0  0  0  0  0  0  0  0  0  0  0
   -8.4156   16.5855   -8.0063 O   0  0  0  0  0  0  0  0  0  0  0  0
   -8.6442   15.9939  -10.3607 H   0  0  0  0  0  0  0  0  0  0  0  0
   -7.6294   17.2233  -11.0227 H   0  0  0  0  0  0  0  0  0  0  0  0
  3  5  1  0  0  0
  4  2  2  0  0  0
  5  6  2  0  0  0
  6  8  1  0  0  0
  7 15  1  0  0  0
  7  1  2  0  0  0
 16 15  1  0  0  0
 16 17  1  0  0  0
 17 18  1  0  0  0
 18 19  1  0  0  0
 19 20  1  0  0  0
 20 21  1  0  0  0
 20 15  1  0  0  0
 21 22  1  0  0  0
  9  3  1  0  0  0
  9 10  2  0  0  0
 11 12  2  0  0  0
 12 24  1  0  0  0
 13  8  2  0  0  0
 24 23  1  0  0  0
  4  1  1  0  0  0
  5  2  1  0  0  0
  6  7  1  0  0  0
  8  9  1  0  0  0
 10 11  1  0  0  0
 12 13  1  0  0  0
 24 25  2  0  0  0
  3 14  1  0  0  0
 23 26  1  0  0  0
 23 27  1  0  0  0
M  END
> <minimizedAffinity>
-8.30589

$$$$
CHEMBL3715037


 27 30  0  0  0  0  0  0  0  0999 V2000
   -1.3566   19.0132   -5.8127 N   0  0  0  0  0  0  0  0  0  0  0  0
    0.7388   19.4632   -4.6947 N   0  0  0  0  0  0  0  0  0  0  0  0
    1.7556   17.5097   -3.7635 N   0  0  0  0  0  0  0  0  0  0  0  0
   -0.3666   19.8118   -5.3708 C   0  0  0  0  0  0  0  0  0  0  0  0
    0.7619   18.1452   -4.4536 C   0  0  0  0  0  0  0  0  0  0  0  0
   -0.1808   17.2045   -4.8380 C   0  0  0  0  0  0  0  0  0  0  0  0
   -1.2828   17.6738   -5.5903 C   0  0  0  0  0  0  0  0  0  0  0  0
    0.2527   15.9551   -4.2833 C   0  0  0  0  0  0  0  0  0  0  0  0
    1.4728   16.1695   -3.6396 C   0  0  0  0  0  0  0  0  0  0  0  0
    2.1819   15.1451   -3.0011 C   0  0  0  0  0  0  0  0  0  0  0  0
    1.6252   13.8584   -3.0211 C   0  0  0  0  0  0  0  0  0  0  0  0
    0.3961   13.6027   -3.6370 C   0  0  0  0  0  0  0  0  0  0  0  0
   -0.2947   14.6559   -4.2464 C   0  0  0  0  0  0  0  0  0  0  0  0
    2.5610   17.9815   -3.3813 H   0  0  0  0  0  0  0  0  0  0  0  0
   -2.2820   16.8600   -6.1040 N   0  0  0  0  0  0  0  0  0  0  0  0
   -1.8956   15.6802   -6.8648 C   0  0  0  0  0  0  0  0  0  0  0  0
   -2.5496   15.6636   -8.2378 C   0  0  0  0  0  0  0  0  0  0  0  0
   -4.0583   15.7886   -8.0997 C   0  0  0  0  0  0  0  0  0  0  0  0
   -4.4150   17.0901   -7.3932 C   0  0  0  0  0  0  0  0  0  0  0  0
   -3.6604   17.3575   -6.0794 C   0  0  0  0  0  0  0  0  0  0  0  0
   -4.4002   16.8817   -4.8105 C   0  0  0  0  0  0  0  0  0  0  0  0
   -5.8495   16.4526   -4.9665 C   0  0  0  0  0  0  0  0  0  0  0  0
    0.7425   11.1657   -3.5440 N   0  0  0  0  0  0  0  0  0  0  0  0
   -0.1394   12.2099   -3.6174 C   0  0  0  0  0  0  0  0  0  0  0  0
   -1.3448   11.9878   -3.6524 O   0  0  0  0  0  0  0  0  0  0  0  0
    0.3458   10.2350   -3.5291 H   0  0  0  0  0  0  0  0  0  0  0  0
    1.7449   11.2452   -3.4916 H   0  0  0  0  0  0  0  0  0  0  0  0
  3  5  1  0  0  0
  4  2  2  0  0  0
  5  6  2  0  0  0
  6  8  1  0  0  0
  7 15  1  0  0  0
  7  1  2  0  0  0
 16 15  1  0  0  0
 16 17  1  0  0  0
 17 18  1  0  0  0
 18 19  1  0  0  0
 19 20  1  0  0  0
 20 21  1  0  0  0
 20 15  1  0  0  0
 21 22  1  0  0  0
  9  3  1  0  0  0
  9 10  2  0  0  0
 11 12  2  0  0  0
 12 24  1  0  0  0
 13  8  2  0  0  0
 24 23  1  0  0  0
  4  1  1  0  0  0
  5  2  1  0  0  0
  6  7  1  0  0  0
  8  9  1  0  0  0
 10 11  1  0  0  0
 12 13  1  0  0  0
 24 25  2  0  0  0
  3 14  1  0  0  0
 23 26  1  0  0  0
 23 27  1  0  0  0
M  END
> <minimizedAffinity>
-8.25446

$$$$
CHEMBL3715974


 26 29  0  0  0  0  0  0  0  0999 V2000
   -2.5608   14.6559   -5.2741 C   0  0  0  0  0  0  0  0  0  0  0  0
   -3.1778   12.4320   -5.6395 C   0  0  0  0  0  0  0  0  0  0  0  0
   -1.2891   12.7734   -4.5406 C   0  0  0  0  0  0  0  0  0  0  0  0
   -1.3959   14.1509   -4.6491 C   0  0  0  0  0  0  0  0  0  0  0  0
   -0.1924   14.6924   -4.0843 C   0  0  0  0  0  0  0  0  0  0  0  0
    0.5493   13.6306   -3.5625 C   0  0  0  0  0  0  0  0  0  0  0  0
    1.7628   13.8129   -2.8904 C   0  0  0  0  0  0  0  0  0  0  0  0
    2.2306   15.1254   -2.7420 C   0  0  0  0  0  0  0  0  0  0  0  0
    1.5347   16.2160   -3.2750 C   0  0  0  0  0  0  0  0  0  0  0  0
    0.3429   15.9951   -3.9771 C   0  0  0  0  0  0  0  0  0  0  0  0
   -3.4202   13.7463   -5.8067 N   0  0  0  0  0  0  0  0  0  0  0  0
   -2.1480   11.8542   -5.0018 N   0  0  0  0  0  0  0  0  0  0  0  0
   -0.1383   12.4785   -3.8658 N   0  0  0  0  0  0  0  0  0  0  0  0
    0.1575   11.5393   -3.6477 H   0  0  0  0  0  0  0  0  0  0  0  0
   -4.3664   17.9664   -7.5458 C   0  0  0  0  0  0  0  0  0  0  0  0
   -4.8898   18.2685   -6.1438 C   0  0  0  0  0  0  0  0  0  0  0  0
   -5.1361   17.0344   -5.2806 C   0  0  0  0  0  0  0  0  0  0  0  0
   -3.8815   16.5860   -4.5315 C   0  0  0  0  0  0  0  0  0  0  0  0
   -2.3576   16.7145   -6.5618 C   0  0  0  0  0  0  0  0  0  0  0  0
   -3.3951   16.7931   -7.6768 C   0  0  0  0  0  0  0  0  0  0  0  0
   -2.8578   16.0065   -5.3900 N   0  0  0  0  0  0  0  0  0  0  0  0
    2.0921   17.5838   -3.0646 C   0  0  0  0  0  0  0  0  0  0  0  0
    3.3524   17.7066   -2.5460 N   0  0  0  0  0  0  0  0  0  0  0  0
    1.4564   18.5877   -3.3661 O   0  0  0  0  0  0  0  0  0  0  0  0
    3.7052   18.6475   -2.4271 H   0  0  0  0  0  0  0  0  0  0  0  0
    3.9605   16.9439   -2.2967 H   0  0  0  0  0  0  0  0  0  0  0  0
 15 16  1  0  0  0
 16 17  1  0  0  0
 17 18  1  0  0  0
 18 21  1  0  0  0
 19 21  1  0  0  0
 19 20  1  0  0  0
 20 15  1  0  0  0
  2 11  2  0  0  0
  3 12  2  0  0  0
  4  5  1  0  0  0
  4  1  2  0  0  0
  6 13  1  0  0  0
  6  7  2  0  0  0
  8  9  2  0  0  0
  9 22  1  0  0  0
 10  5  2  0  0  0
 22 23  1  0  0  0
 21  1  1  0  0  0
 13  3  1  0  0  0
  1 11  1  0  0  0
  2 12  1  0  0  0
  3  4  1  0  0  0
  5  6  1  0  0  0
  7  8  1  0  0  0
  9 10  1  0  0  0
 22 24  2  0  0  0
 13 14  1  0  0  0
 23 25  1  0  0  0
 23 26  1  0  0  0
M  END
> <minimizedAffinity>
-9.96893

$$$$
CHEMBL3715974


 26 29  0  0  0  0  0  0  0  0999 V2000
   -0.6768   17.1813   -4.5706 C   0  0  0  0  0  0  0  0  0  0  0  0
    1.1554   17.9167   -3.3208 C   0  0  0  0  0  0  0  0  0  0  0  0
    0.8597   15.7295   -3.4612 C   0  0  0  0  0  0  0  0  0  0  0  0
   -0.2959   15.8658   -4.2140 C   0  0  0  0  0  0  0  0  0  0  0  0
   -0.8170   14.5402   -4.3929 C   0  0  0  0  0  0  0  0  0  0  0  0
    0.0952   13.6440   -3.8322 C   0  0  0  0  0  0  0  0  0  0  0  0
   -0.0808   12.2567   -3.8777 C   0  0  0  0  0  0  0  0  0  0  0  0
   -1.2251   11.7695   -4.5232 C   0  0  0  0  0  0  0  0  0  0  0  0
   -2.1799   12.6324   -5.0726 C   0  0  0  0  0  0  0  0  0  0  0  0
   -1.9930   14.0171   -4.9748 C   0  0  0  0  0  0  0  0  0  0  0  0
    0.0627   18.1998   -4.0556 N   0  0  0  0  0  0  0  0  0  0  0  0
    1.6418   16.7103   -2.9905 N   0  0  0  0  0  0  0  0  0  0  0  0
    1.0960   14.3982   -3.2650 N   0  0  0  0  0  0  0  0  0  0  0  0
    1.8891   14.0398   -2.7555 H   0  0  0  0  0  0  0  0  0  0  0  0
   -3.4486   16.0228   -7.7886 C   0  0  0  0  0  0  0  0  0  0  0  0
   -4.4268   16.5996   -6.7683 C   0  0  0  0  0  0  0  0  0  0  0  0
   -4.0131   16.4021   -5.3129 C   0  0  0  0  0  0  0  0  0  0  0  0
   -3.0958   17.5164   -4.8101 C   0  0  0  0  0  0  0  0  0  0  0  0
   -1.5516   17.4548   -6.8283 C   0  0  0  0  0  0  0  0  0  0  0  0
   -1.9621   16.1217   -7.4449 C   0  0  0  0  0  0  0  0  0  0  0  0
   -1.7584   17.4837   -5.3857 N   0  0  0  0  0  0  0  0  0  0  0  0
   -3.3655   12.0359   -5.7540 C   0  0  0  0  0  0  0  0  0  0  0  0
   -4.4794   12.8106   -5.9316 N   0  0  0  0  0  0  0  0  0  0  0  0
   -3.3510   10.8839   -6.1729 O   0  0  0  0  0  0  0  0  0  0  0  0
   -5.2614   12.3798   -6.4078 H   0  0  0  0  0  0  0  0  0  0  0  0
   -4.5753   13.7725   -5.6501 H   0  0  0  0  0  0  0  0  0  0  0  0
 15 16  1  0  0  0
 16 17  1  0  0  0
 17 18  1  0  0  0
 18 21  1  0  0  0
 19 21  1  0  0  0
 19 20  1  0  0  0
 20 15  1  0  0  0
  2 11  2  0  0  0
  3 12  2  0  0  0
  4  5  1  0  0  0
  4  1  2  0  0  0
  6 13  1  0  0  0
  6  7  2  0  0  0
  8  9  2  0  0  0
  9 22  1  0  0  0
 10  5  2  0  0  0
 22 23  1  0  0  0
 21  1  1  0  0  0
 13  3  1  0  0  0
  1 11  1  0  0  0
  2 12  1  0  0  0
  3  4  1  0  0  0
  5  6  1  0  0  0
  7  8  1  0  0  0
  9 10  1  0  0  0
 22 24  2  0  0  0
 13 14  1  0  0  0
 23 25  1  0  0  0
 23 26  1  0  0  0
M  END
> <minimizedAffinity>
-9.79896

$$$$
CHEMBL3715974


 26 29  0  0  0  0  0  0  0  0999 V2000
   -2.0313   14.1882   -5.3838 C   0  0  0  0  0  0  0  0  0  0  0  0
   -1.7913   11.9020   -4.9644 C   0  0  0  0  0  0  0  0  0  0  0  0
   -0.3244   13.2497   -4.0036 C   0  0  0  0  0  0  0  0  0  0  0  0
   -0.8751   14.3781   -4.5902 C   0  0  0  0  0  0  0  0  0  0  0  0
   -0.0297   15.4770   -4.2180 C   0  0  0  0  0  0  0  0  0  0  0  0
    0.9390   14.9908   -3.3377 C   0  0  0  0  0  0  0  0  0  0  0  0
    1.8993   15.8137   -2.7391 C   0  0  0  0  0  0  0  0  0  0  0  0
    1.8642   17.1803   -3.0467 C   0  0  0  0  0  0  0  0  0  0  0  0
    0.9299   17.7051   -3.9465 C   0  0  0  0  0  0  0  0  0  0  0  0
    0.0075   16.8472   -4.5590 C   0  0  0  0  0  0  0  0  0  0  0  0
   -2.4373   12.9063   -5.5876 N   0  0  0  0  0  0  0  0  0  0  0  0
   -0.7377   11.9821   -4.1371 N   0  0  0  0  0  0  0  0  0  0  0  0
    0.7395   13.6336   -3.2372 N   0  0  0  0  0  0  0  0  0  0  0  0
    1.2997   12.9927   -2.6963 H   0  0  0  0  0  0  0  0  0  0  0  0
   -3.3387   18.3918   -5.3768 C   0  0  0  0  0  0  0  0  0  0  0  0
   -2.9364   18.2244   -6.8399 C   0  0  0  0  0  0  0  0  0  0  0  0
   -1.7849   17.2504   -7.0723 C   0  0  0  0  0  0  0  0  0  0  0  0
   -2.2621   15.8054   -7.2147 C   0  0  0  0  0  0  0  0  0  0  0  0
   -3.7779   15.8743   -5.1754 C   0  0  0  0  0  0  0  0  0  0  0  0
   -3.2671   17.1422   -4.4990 C   0  0  0  0  0  0  0  0  0  0  0  0
   -2.7482   15.2200   -5.9730 N   0  0  0  0  0  0  0  0  0  0  0  0
    0.9496   19.1729   -4.2129 C   0  0  0  0  0  0  0  0  0  0  0  0
    0.7695   20.0331   -3.1641 N   0  0  0  0  0  0  0  0  0  0  0  0
    1.1447   19.6168   -5.3389 O   0  0  0  0  0  0  0  0  0  0  0  0
    0.8005   21.0219   -3.3768 H   0  0  0  0  0  0  0  0  0  0  0  0
    0.6330   19.7653   -2.2032 H   0  0  0  0  0  0  0  0  0  0  0  0
 15 16  1  0  0  0
 16 17  1  0  0  0
 17 18  1  0  0  0
 18 21  1  0  0  0
 19 21  1  0  0  0
 19 20  1  0  0  0
 20 15  1  0  0  0
  2 11  2  0  0  0
  3 12  2  0  0  0
  4  5  1  0  0  0
  4  1  2  0  0  0
  6 13  1  0  0  0
  6  7  2  0  0  0
  8  9  2  0  0  0
  9 22  1  0  0  0
 10  5  2  0  0  0
 22 23  1  0  0  0
 21  1  1  0  0  0
 13  3  1  0  0  0
  1 11  1  0  0  0
  2 12  1  0  0  0
  3  4  1  0  0  0
  5  6  1  0  0  0
  7  8  1  0  0  0
  9 10  1  0  0  0
 22 24  2  0  0  0
 13 14  1  0  0  0
 23 25  1  0  0  0
 23 26  1  0  0  0
M  END
> <minimizedAffinity>
-9.48122

$$$$
CHEMBL3715974


 26 29  0  0  0  0  0  0  0  0999 V2000
   -1.4057   18.0419   -5.7297 C   0  0  0  0  0  0  0  0  0  0  0  0
   -0.2301   20.0345   -5.4014 C   0  0  0  0  0  0  0  0  0  0  0  0
    0.6576   18.2014   -4.5394 C   0  0  0  0  0  0  0  0  0  0  0  0
   -0.3967   17.4091   -4.9654 C   0  0  0  0  0  0  0  0  0  0  0  0
   -0.1501   16.0963   -4.4394 C   0  0  0  0  0  0  0  0  0  0  0  0
    1.0930   16.1179   -3.8040 C   0  0  0  0  0  0  0  0  0  0  0  0
    1.6657   14.9816   -3.2221 C   0  0  0  0  0  0  0  0  0  0  0  0
    0.9455   13.7821   -3.2975 C   0  0  0  0  0  0  0  0  0  0  0  0
   -0.3167   13.7217   -3.8984 C   0  0  0  0  0  0  0  0  0  0  0  0
   -0.8790   14.8864   -4.4363 C   0  0  0  0  0  0  0  0  0  0  0  0
   -1.3072   19.3890   -5.8885 N   0  0  0  0  0  0  0  0  0  0  0  0
    0.8122   19.5183   -4.7318 N   0  0  0  0  0  0  0  0  0  0  0  0
    1.5520   17.4128   -3.8725 N   0  0  0  0  0  0  0  0  0  0  0  0
    2.4136   17.7557   -3.4760 H   0  0  0  0  0  0  0  0  0  0  0  0
   -3.1835   14.3288   -7.2893 C   0  0  0  0  0  0  0  0  0  0  0  0
   -4.3316   14.8512   -6.4292 C   0  0  0  0  0  0  0  0  0  0  0  0
   -3.8925   15.6302   -5.1927 C   0  0  0  0  0  0  0  0  0  0  0  0
   -3.6636   17.1124   -5.4871 C   0  0  0  0  0  0  0  0  0  0  0  0
   -2.2719   16.7076   -7.5753 C   0  0  0  0  0  0  0  0  0  0  0  0
   -1.9513   15.2262   -7.4061 C   0  0  0  0  0  0  0  0  0  0  0  0
   -2.4831   17.3770   -6.2978 N   0  0  0  0  0  0  0  0  0  0  0  0
   -1.0152   12.4044   -3.9493 C   0  0  0  0  0  0  0  0  0  0  0  0
   -2.3436   12.3777   -4.2765 N   0  0  0  0  0  0  0  0  0  0  0  0
   -0.4207   11.3554   -3.7279 O   0  0  0  0  0  0  0  0  0  0  0  0
   -2.7843   11.4676   -4.3139 H   0  0  0  0  0  0  0  0  0  0  0  0
   -2.9076   13.1803   -4.5032 H   0  0  0  0  0  0  0  0  0  0  0  0
 15 16  1  0  0  0
 16 17  1  0  0  0
 17 18  1  0  0  0
 18 21  1  0  0  0
 19 21  1  0  0  0
 19 20  1  0  0  0
 20 15  1  0  0  0
  2 11  2  0  0  0
  3 12  2  0  0  0
  4  5  1  0  0  0
  4  1  2  0  0  0
  6 13  1  0  0  0
  6  7  2  0  0  0
  8  9  2  0  0  0
  9 22  1  0  0  0
 10  5  2  0  0  0
 22 23  1  0  0  0
 21  1  1  0  0  0
 13  3  1  0  0  0
  1 11  1  0  0  0
  2 12  1  0  0  0
  3  4  1  0  0  0
  5  6  1  0  0  0
  7  8  1  0  0  0
  9 10  1  0  0  0
 22 24  2  0  0  0
 13 14  1  0  0  0
 23 25  1  0  0  0
 23 26  1  0  0  0
M  END
> <minimizedAffinity>
-9.20019

$$$$
CHEMBL3715974


 26 29  0  0  0  0  0  0  0  0999 V2000
   -3.7883   14.3385   -5.9298 C   0  0  0  0  0  0  0  0  0  0  0  0
   -4.5426   12.1274   -5.8855 C   0  0  0  0  0  0  0  0  0  0  0  0
   -2.6558   12.5571   -4.8147 C   0  0  0  0  0  0  0  0  0  0  0  0
   -2.6704   13.8924   -5.1855 C   0  0  0  0  0  0  0  0  0  0  0  0
   -1.4444   14.4577   -4.6974 C   0  0  0  0  0  0  0  0  0  0  0  0
   -0.7833   13.4722   -3.9617 C   0  0  0  0  0  0  0  0  0  0  0  0
    0.4272   13.7055   -3.3000 C   0  0  0  0  0  0  0  0  0  0  0  0
    0.9770   14.9912   -3.3890 C   0  0  0  0  0  0  0  0  0  0  0  0
    0.3637   16.0002   -4.1398 C   0  0  0  0  0  0  0  0  0  0  0  0
   -0.8271   15.7220   -4.8230 C   0  0  0  0  0  0  0  0  0  0  0  0
   -4.6955   13.3978   -6.3060 N   0  0  0  0  0  0  0  0  0  0  0  0
   -3.5645   11.6206   -5.1190 N   0  0  0  0  0  0  0  0  0  0  0  0
   -1.5391   12.3273   -4.0618 N   0  0  0  0  0  0  0  0  0  0  0  0
   -1.3093   11.4309   -3.6608 H   0  0  0  0  0  0  0  0  0  0  0  0
   -3.0392   18.6310   -5.3028 C   0  0  0  0  0  0  0  0  0  0  0  0
   -2.8518   18.5303   -6.8145 C   0  0  0  0  0  0  0  0  0  0  0  0
   -2.2863   17.1968   -7.2947 C   0  0  0  0  0  0  0  0  0  0  0  0
   -3.3761   16.1515   -7.5310 C   0  0  0  0  0  0  0  0  0  0  0  0
   -4.5605   16.5678   -5.3208 C   0  0  0  0  0  0  0  0  0  0  0  0
   -3.4871   17.3597   -4.5814 C   0  0  0  0  0  0  0  0  0  0  0  0
   -3.9942   15.6575   -6.3084 N   0  0  0  0  0  0  0  0  0  0  0  0
    1.0054   17.3465   -4.1757 C   0  0  0  0  0  0  0  0  0  0  0  0
    0.7514   18.1668   -5.2411 N   0  0  0  0  0  0  0  0  0  0  0  0
    1.7301   17.7350   -3.2664 O   0  0  0  0  0  0  0  0  0  0  0  0
    1.1924   19.0775   -5.2288 H   0  0  0  0  0  0  0  0  0  0  0  0
    0.1488   17.9492   -6.0177 H   0  0  0  0  0  0  0  0  0  0  0  0
 15 16  1  0  0  0
 16 17  1  0  0  0
 17 18  1  0  0  0
 18 21  1  0  0  0
 19 21  1  0  0  0
 19 20  1  0  0  0
 20 15  1  0  0  0
  2 11  2  0  0  0
  3 12  2  0  0  0
  4  5  1  0  0  0
  4  1  2  0  0  0
  6 13  1  0  0  0
  6  7  2  0  0  0
  8  9  2  0  0  0
  9 22  1  0  0  0
 10  5  2  0  0  0
 22 23  1  0  0  0
 21  1  1  0  0  0
 13  3  1  0  0  0
  1 11  1  0  0  0
  2 12  1  0  0  0
  3  4  1  0  0  0
  5  6  1  0  0  0
  7  8  1  0  0  0
  9 10  1  0  0  0
 22 24  2  0  0  0
 13 14  1  0  0  0
 23 25  1  0  0  0
 23 26  1  0  0  0
M  END
> <minimizedAffinity>
-8.88676

$$$$
CHEMBL3715974


 26 29  0  0  0  0  0  0  0  0999 V2000
   -3.6244   18.4736   -7.1110 C   0  0  0  0  0  0  0  0  0  0  0  0
   -2.3002   20.3836   -7.3524 C   0  0  0  0  0  0  0  0  0  0  0  0
   -4.3720   20.5057   -8.1165 C   0  0  0  0  0  0  0  0  0  0  0  0
   -4.6464   19.1901   -7.7779 C   0  0  0  0  0  0  0  0  0  0  0  0
   -5.9676   18.9168   -8.2683 C   0  0  0  0  0  0  0  0  0  0  0  0
   -6.4824   20.1044   -8.7921 C   0  0  0  0  0  0  0  0  0  0  0  0
   -7.7779   20.2041   -9.3111 C   0  0  0  0  0  0  0  0  0  0  0  0
   -8.5754   19.0523   -9.2887 C   0  0  0  0  0  0  0  0  0  0  0  0
   -8.0898   17.8341   -8.8007 C   0  0  0  0  0  0  0  0  0  0  0  0
   -6.7746   17.7588   -8.3247 C   0  0  0  0  0  0  0  0  0  0  0  0
   -2.4287   19.1027   -6.9561 N   0  0  0  0  0  0  0  0  0  0  0  0
   -3.2251   21.1709   -7.9230 N   0  0  0  0  0  0  0  0  0  0  0  0
   -5.4851   21.0468   -8.6951 N   0  0  0  0  0  0  0  0  0  0  0  0
   -5.5408   22.0009   -9.0172 H   0  0  0  0  0  0  0  0  0  0  0  0
   -1.9685   14.4362   -6.5302 C   0  0  0  0  0  0  0  0  0  0  0  0
   -2.5568   14.7010   -5.1467 C   0  0  0  0  0  0  0  0  0  0  0  0
   -2.5240   16.1640   -4.7143 C   0  0  0  0  0  0  0  0  0  0  0  0
   -3.7471   16.9432   -5.1969 C   0  0  0  0  0  0  0  0  0  0  0  0
   -3.6245   16.0837   -7.5859 C   0  0  0  0  0  0  0  0  0  0  0  0
   -2.2134   15.5053   -7.5953 C   0  0  0  0  0  0  0  0  0  0  0  0
   -3.7670   17.1783   -6.6340 N   0  0  0  0  0  0  0  0  0  0  0  0
   -9.0047   16.6557   -8.7997 C   0  0  0  0  0  0  0  0  0  0  0  0
   -9.7968   16.4384   -9.8941 N   0  0  0  0  0  0  0  0  0  0  0  0
   -9.0420   15.8747   -7.8554 O   0  0  0  0  0  0  0  0  0  0  0  0
  -10.3967   15.6240   -9.8665 H   0  0  0  0  0  0  0  0  0  0  0  0
   -9.8146   17.0046  -10.7264 H   0  0  0  0  0  0  0  0  0  0  0  0
 15 16  1  0  0  0
 16 17  1  0  0  0
 17 18  1  0  0  0
 18 21  1  0  0  0
 19 21  1  0  0  0
 19 20  1  0  0  0
 20 15  1  0  0  0
  2 11  2  0  0  0
  3 12  2  0  0  0
  4  5  1  0  0  0
  4  1  2  0  0  0
  6 13  1  0  0  0
  6  7  2  0  0  0
  8  9  2  0  0  0
  9 22  1  0  0  0
 10  5  2  0  0  0
 22 23  1  0  0  0
 21  1  1  0  0  0
 13  3  1  0  0  0
  1 11  1  0  0  0
  2 12  1  0  0  0
  3  4  1  0  0  0
  5  6  1  0  0  0
  7  8  1  0  0  0
  9 10  1  0  0  0
 22 24  2  0  0  0
 13 14  1  0  0  0
 23 25  1  0  0  0
 23 26  1  0  0  0
M  END
> <minimizedAffinity>
-8.02830

$$$$
CHEMBL3715974


 26 29  0  0  0  0  0  0  0  0999 V2000
   -3.1851   12.6995   -5.4892 C   0  0  0  0  0  0  0  0  0  0  0  0
   -5.1275   11.4267   -5.2307 C   0  0  0  0  0  0  0  0  0  0  0  0
   -5.3831   13.4923   -5.9784 C   0  0  0  0  0  0  0  0  0  0  0  0
   -4.0263   13.7624   -5.8958 C   0  0  0  0  0  0  0  0  0  0  0  0
   -3.8712   15.1473   -6.2403 C   0  0  0  0  0  0  0  0  0  0  0  0
   -5.1234   15.6358   -6.6182 C   0  0  0  0  0  0  0  0  0  0  0  0
   -5.3214   16.9468   -7.0652 C   0  0  0  0  0  0  0  0  0  0  0  0
   -4.2002   17.7845   -7.1332 C   0  0  0  0  0  0  0  0  0  0  0  0
   -2.9323   17.3455   -6.7361 C   0  0  0  0  0  0  0  0  0  0  0  0
   -2.7758   16.0390   -6.2557 C   0  0  0  0  0  0  0  0  0  0  0  0
   -3.7906   11.5410   -5.1141 N   0  0  0  0  0  0  0  0  0  0  0  0
   -6.0018   12.3436   -5.6735 N   0  0  0  0  0  0  0  0  0  0  0  0
   -6.0215   14.6097   -6.4374 N   0  0  0  0  0  0  0  0  0  0  0  0
   -7.0162   14.6605   -6.5960 H   0  0  0  0  0  0  0  0  0  0  0  0
    0.4686   13.7968   -3.2923 C   0  0  0  0  0  0  0  0  0  0  0  0
    0.8610   12.4197   -3.8215 C   0  0  0  0  0  0  0  0  0  0  0  0
   -0.2992   11.4370   -3.9507 C   0  0  0  0  0  0  0  0  0  0  0  0
   -1.0213   11.5592   -5.2922 C   0  0  0  0  0  0  0  0  0  0  0  0
   -1.2059   14.0930   -5.2105 C   0  0  0  0  0  0  0  0  0  0  0  0
   -0.8877   14.3421   -3.7400 C   0  0  0  0  0  0  0  0  0  0  0  0
   -1.8010   12.7812   -5.4329 N   0  0  0  0  0  0  0  0  0  0  0  0
   -1.7862   18.2939   -6.8495 C   0  0  0  0  0  0  0  0  0  0  0  0
   -2.0029   19.5211   -7.4146 N   0  0  0  0  0  0  0  0  0  0  0  0
   -0.6716   18.0045   -6.4292 O   0  0  0  0  0  0  0  0  0  0  0  0
   -1.2078   20.1448   -7.4654 H   0  0  0  0  0  0  0  0  0  0  0  0
   -2.8860   19.8596   -7.7600 H   0  0  0  0  0  0  0  0  0  0  0  0
 15 16  1  0  0  0
 16 17  1  0  0  0
 17 18  1  0  0  0
 18 21  1  0  0  0
 19 21  1  0  0  0
 19 20  1  0  0  0
 20 15  1  0  0  0
  2 11  2  0  0  0
  3 12  2  0  0  0
  4  5  1  0  0  0
  4  1  2  0  0  0
  6 13  1  0  0  0
  6  7  2  0  0  0
  8  9  2  0  0  0
  9 22  1  0  0  0
 10  5  2  0  0  0
 22 23  1  0  0  0
 21  1  1  0  0  0
 13  3  1  0  0  0
  1 11  1  0  0  0
  2 12  1  0  0  0
  3  4  1  0  0  0
  5  6  1  0  0  0
  7  8  1  0  0  0
  9 10  1  0  0  0
 22 24  2  0  0  0
 13 14  1  0  0  0
 23 25  1  0  0  0
 23 26  1  0  0  0
M  END
> <minimizedAffinity>
-7.84708

$$$$
CHEMBL3715974


 26 29  0  0  0  0  0  0  0  0999 V2000
   -2.0461   17.6382   -5.5741 C   0  0  0  0  0  0  0  0  0  0  0  0
   -3.3226   19.5742   -5.8619 C   0  0  0  0  0  0  0  0  0  0  0  0
   -4.4093   17.6487   -5.9128 C   0  0  0  0  0  0  0  0  0  0  0  0
   -3.2473   16.9110   -5.7507 C   0  0  0  0  0  0  0  0  0  0  0  0
   -3.6308   15.5312   -5.8499 C   0  0  0  0  0  0  0  0  0  0  0  0
   -5.0215   15.4821   -5.9641 C   0  0  0  0  0  0  0  0  0  0  0  0
   -5.7338   14.2797   -6.0302 C   0  0  0  0  0  0  0  0  0  0  0  0
   -4.9997   13.0876   -5.9720 C   0  0  0  0  0  0  0  0  0  0  0  0
   -3.6030   13.0905   -5.8876 C   0  0  0  0  0  0  0  0  0  0  0  0
   -2.9178   14.3120   -5.8635 C   0  0  0  0  0  0  0  0  0  0  0  0
   -2.1212   18.9916   -5.6849 N   0  0  0  0  0  0  0  0  0  0  0  0
   -4.5227   18.9827   -5.9658 N   0  0  0  0  0  0  0  0  0  0  0  0
   -5.4627   16.7842   -6.0106 N   0  0  0  0  0  0  0  0  0  0  0  0
   -6.4207   17.0796   -6.1209 H   0  0  0  0  0  0  0  0  0  0  0  0
    1.5951   17.3699   -3.1146 C   0  0  0  0  0  0  0  0  0  0  0  0
    1.2513   15.8908   -3.2711 C   0  0  0  0  0  0  0  0  0  0  0  0
   -0.2425   15.5951   -3.3692 C   0  0  0  0  0  0  0  0  0  0  0  0
   -0.7643   15.6934   -4.8025 C   0  0  0  0  0  0  0  0  0  0  0  0
    0.3572   17.9216   -5.2905 C   0  0  0  0  0  0  0  0  0  0  0  0
    0.7152   18.3623   -3.8751 C   0  0  0  0  0  0  0  0  0  0  0  0
   -0.8135   17.0538   -5.3200 N   0  0  0  0  0  0  0  0  0  0  0  0
   -2.8944   11.7794   -5.8179 C   0  0  0  0  0  0  0  0  0  0  0  0
   -1.6854   11.7196   -5.1800 N   0  0  0  0  0  0  0  0  0  0  0  0
   -3.3819   10.7618   -6.2971 O   0  0  0  0  0  0  0  0  0  0  0  0
   -1.2370   10.8134   -5.1399 H   0  0  0  0  0  0  0  0  0  0  0  0
   -1.2206   12.4918   -4.7314 H   0  0  0  0  0  0  0  0  0  0  0  0
 15 16  1  0  0  0
 16 17  1  0  0  0
 17 18  1  0  0  0
 18 21  1  0  0  0
 19 21  1  0  0  0
 19 20  1  0  0  0
 20 15  1  0  0  0
  2 11  2  0  0  0
  3 12  2  0  0  0
  4  5  1  0  0  0
  4  1  2  0  0  0
  6 13  1  0  0  0
  6  7  2  0  0  0
  8  9  2  0  0  0
  9 22  1  0  0  0
 10  5  2  0  0  0
 22 23  1  0  0  0
 21  1  1  0  0  0
 13  3  1  0  0  0
  1 11  1  0  0  0
  2 12  1  0  0  0
  3  4  1  0  0  0
  5  6  1  0  0  0
  7  8  1  0  0  0
  9 10  1  0  0  0
 22 24  2  0  0  0
 13 14  1  0  0  0
 23 25  1  0  0  0
 23 26  1  0  0  0
M  END
> <minimizedAffinity>
-7.84373

$$$$
CHEMBL3715974


 26 29  0  0  0  0  0  0  0  0999 V2000
    2.0176   17.8969   -3.3529 C   0  0  0  0  0  0  0  0  0  0  0  0
    3.5478   18.8282   -1.8526 C   0  0  0  0  0  0  0  0  0  0  0  0
    2.1481   20.2254   -2.8424 C   0  0  0  0  0  0  0  0  0  0  0  0
    1.5607   19.2155   -3.5879 C   0  0  0  0  0  0  0  0  0  0  0  0
    0.6199   19.8573   -4.4619 C   0  0  0  0  0  0  0  0  0  0  0  0
    0.5979   21.2161   -4.1412 C   0  0  0  0  0  0  0  0  0  0  0  0
   -0.2540   22.1293   -4.7721 C   0  0  0  0  0  0  0  0  0  0  0  0
   -1.1162   21.6353   -5.7600 C   0  0  0  0  0  0  0  0  0  0  0  0
   -1.1064   20.2869   -6.1336 C   0  0  0  0  0  0  0  0  0  0  0  0
   -0.2130   19.4066   -5.5099 C   0  0  0  0  0  0  0  0  0  0  0  0
    3.0633   17.7488   -2.4961 N   0  0  0  0  0  0  0  0  0  0  0  0
    3.1380   20.1026   -1.9479 N   0  0  0  0  0  0  0  0  0  0  0  0
    1.5448   21.4088   -3.1623 N   0  0  0  0  0  0  0  0  0  0  0  0
    1.7882   22.2926   -2.7418 H   0  0  0  0  0  0  0  0  0  0  0  0
    1.3385   13.5474   -3.3482 C   0  0  0  0  0  0  0  0  0  0  0  0
   -0.0572   14.0499   -3.7087 C   0  0  0  0  0  0  0  0  0  0  0  0
   -0.4246   15.3957   -3.0904 C   0  0  0  0  0  0  0  0  0  0  0  0
    0.0361   16.5762   -3.9450 C   0  0  0  0  0  0  0  0  0  0  0  0
    2.3892   15.6830   -4.3002 C   0  0  0  0  0  0  0  0  0  0  0  0
    2.4365   14.6039   -3.2235 C   0  0  0  0  0  0  0  0  0  0  0  0
    1.4797   16.7686   -3.9554 N   0  0  0  0  0  0  0  0  0  0  0  0
   -2.0632   19.8360   -7.1858 C   0  0  0  0  0  0  0  0  0  0  0  0
   -2.3837   18.5076   -7.2561 N   0  0  0  0  0  0  0  0  0  0  0  0
   -2.5789   20.6297   -7.9650 O   0  0  0  0  0  0  0  0  0  0  0  0
   -3.0445   18.2369   -7.9730 H   0  0  0  0  0  0  0  0  0  0  0  0
   -2.0365   17.7877   -6.6439 H   0  0  0  0  0  0  0  0  0  0  0  0
 15 16  1  0  0  0
 16 17  1  0  0  0
 17 18  1  0  0  0
 18 21  1  0  0  0
 19 21  1  0  0  0
 19 20  1  0  0  0
 20 15  1  0  0  0
  2 11  2  0  0  0
  3 12  2  0  0  0
  4  5  1  0  0  0
  4  1  2  0  0  0
  6 13  1  0  0  0
  6  7  2  0  0  0
  8  9  2  0  0  0
  9 22  1  0  0  0
 10  5  2  0  0  0
 22 23  1  0  0  0
 21  1  1  0  0  0
 13  3  1  0  0  0
  1 11  1  0  0  0
  2 12  1  0  0  0
  3  4  1  0  0  0
  5  6  1  0  0  0
  7  8  1  0  0  0
  9 10  1  0  0  0
 22 24  2  0  0  0
 13 14  1  0  0  0
 23 25  1  0  0  0
 23 26  1  0  0  0
M  END
> <minimizedAffinity>
-7.70975

$$$$
CHEMBL3356065


 27 30  0  0  0  0  0  0  0  0999 V2000
   -3.8538   16.9863   -7.8155 C   0  0  0  0  0  0  0  0  0  0  0  0
   -2.6880   16.7515   -6.8098 C   0  0  0  0  0  0  0  0  0  0  0  0
   -4.5919   16.6192   -5.2139 C   0  0  0  0  0  0  0  0  0  0  0  0
   -5.2274   17.8475   -5.8866 C   0  0  0  0  0  0  0  0  0  0  0  0
   -2.3396   16.8214   -4.2744 C   0  0  0  0  0  0  0  0  0  0  0  0
   -1.9564   15.4657   -7.2162 C   0  0  0  0  0  0  0  0  0  0  0  0
   -4.8830   17.9017   -7.3171 N   0  0  0  0  0  0  0  0  0  0  0  0
   -3.1381   16.6652   -5.3994 N   0  0  0  0  0  0  0  0  0  0  0  0
   -2.7992   16.6828   -3.1350 O   0  0  0  0  0  0  0  0  0  0  0  0
   -6.0317   21.0032   -8.9325 C   0  0  0  0  0  0  0  0  0  0  0  0
   -3.8972   21.1880   -8.3834 C   0  0  0  0  0  0  0  0  0  0  0  0
   -4.9404   19.1673   -7.8815 C   0  0  0  0  0  0  0  0  0  0  0  0
   -6.1140   19.7005   -8.4615 C   0  0  0  0  0  0  0  0  0  0  0  0
   -7.4439   19.2401   -8.7630 C   0  0  0  0  0  0  0  0  0  0  0  0
   -8.1153   20.3012   -9.3474 C   0  0  0  0  0  0  0  0  0  0  0  0
   -8.0115   17.8854   -8.5355 C   0  0  0  0  0  0  0  0  0  0  0  0
   -4.9606   21.8083   -8.9167 N   0  0  0  0  0  0  0  0  0  0  0  0
   -3.8216   19.9384   -7.8853 N   0  0  0  0  0  0  0  0  0  0  0  0
   -7.2497   21.3576   -9.4391 N   0  0  0  0  0  0  0  0  0  0  0  0
   -7.4490   22.2629   -9.8388 H   0  0  0  0  0  0  0  0  0  0  0  0
   -0.8756   17.2095   -4.4457 C   0  0  0  0  0  0  0  0  0  0  0  0
    0.0582   16.1545   -3.8977 C   0  0  0  0  0  0  0  0  0  0  0  0
   -0.2865   14.7966   -3.9427 C   0  0  0  0  0  0  0  0  0  0  0  0
    0.5930   13.8255   -3.4624 C   0  0  0  0  0  0  0  0  0  0  0  0
    1.8257   14.2004   -2.9333 C   0  0  0  0  0  0  0  0  0  0  0  0
    2.1822   15.5465   -2.8879 C   0  0  0  0  0  0  0  0  0  0  0  0
    1.3053   16.5190   -3.3711 C   0  0  0  0  0  0  0  0  0  0  0  0
 11 17  2  0  0  0
 12 18  2  0  0  0
 12  7  1  0  0  0
 13 14  1  0  0  0
 13 10  2  0  0  0
 15 19  1  0  0  0
 16 14  1  0  0  0
  1  7  1  0  0  0
  1  2  1  0  0  0
  2  8  1  0  0  0
  2  6  1  0  0  0
  3  8  1  0  0  0
  3  4  1  0  0  0
  4  7  1  0  0  0
 21  5  1  0  0  0
 21 22  1  0  0  0
 23 24  2  0  0  0
 25 26  2  0  0  0
 27 22  2  0  0  0
 19 10  1  0  0  0
  8  5  1  0  0  0
 10 17  1  0  0  0
 11 18  1  0  0  0
 12 13  1  0  0  0
 14 15  2  0  0  0
  5  9  2  0  0  0
 22 23  1  0  0  0
 24 25  1  0  0  0
 26 27  1  0  0  0
 19 20  1  0  0  0
M  END
> <minimizedAffinity>
-9.06928

$$$$
CHEMBL3356065


 27 30  0  0  0  0  0  0  0  0999 V2000
   -1.6479   16.7841   -6.0826 C   0  0  0  0  0  0  0  0  0  0  0  0
   -3.0464   16.3430   -6.6073 C   0  0  0  0  0  0  0  0  0  0  0  0
   -3.7692   17.4533   -4.5016 C   0  0  0  0  0  0  0  0  0  0  0  0
   -2.6130   16.7668   -3.7552 C   0  0  0  0  0  0  0  0  0  0  0  0
   -5.4116   16.0616   -5.6688 C   0  0  0  0  0  0  0  0  0  0  0  0
   -3.2963   17.0415   -7.9501 C   0  0  0  0  0  0  0  0  0  0  0  0
   -1.4612   16.5565   -4.6477 N   0  0  0  0  0  0  0  0  0  0  0  0
   -4.1483   16.6374   -5.6595 N   0  0  0  0  0  0  0  0  0  0  0  0
   -6.2829   16.4091   -4.8634 O   0  0  0  0  0  0  0  0  0  0  0  0
    1.3709   14.6186   -3.3163 C   0  0  0  0  0  0  0  0  0  0  0  0
   -0.2089   13.2458   -4.0315 C   0  0  0  0  0  0  0  0  0  0  0  0
   -0.6124   15.5271   -4.2689 C   0  0  0  0  0  0  0  0  0  0  0  0
    0.6617   15.7485   -3.6983 C   0  0  0  0  0  0  0  0  0  0  0  0
    1.5098   16.8773   -3.4188 C   0  0  0  0  0  0  0  0  0  0  0  0
    2.6617   16.3807   -2.8315 C   0  0  0  0  0  0  0  0  0  0  0  0
    1.2473   18.3093   -3.7182 C   0  0  0  0  0  0  0  0  0  0  0  0
    0.9933   13.3391   -3.4430 N   0  0  0  0  0  0  0  0  0  0  0  0
   -1.0126   14.2416   -4.4530 N   0  0  0  0  0  0  0  0  0  0  0  0
    2.5599   15.0169   -2.7745 N   0  0  0  0  0  0  0  0  0  0  0  0
    3.2542   14.3785   -2.4148 H   0  0  0  0  0  0  0  0  0  0  0  0
   -5.7191   14.9514   -6.6669 C   0  0  0  0  0  0  0  0  0  0  0  0
   -5.3432   13.5884   -6.1320 C   0  0  0  0  0  0  0  0  0  0  0  0
   -6.3265   12.6982   -5.6786 C   0  0  0  0  0  0  0  0  0  0  0  0
   -5.9751   11.4303   -5.2140 C   0  0  0  0  0  0  0  0  0  0  0  0
   -4.6387   11.0380   -5.1983 C   0  0  0  0  0  0  0  0  0  0  0  0
   -3.6525   11.9118   -5.6512 C   0  0  0  0  0  0  0  0  0  0  0  0
   -4.0024   13.1792   -6.1196 C   0  0  0  0  0  0  0  0  0  0  0  0
 11 17  2  0  0  0
 12 18  2  0  0  0
 12  7  1  0  0  0
 13 14  1  0  0  0
 13 10  2  0  0  0
 15 19  1  0  0  0
 16 14  1  0  0  0
  1  7  1  0  0  0
  1  2  1  0  0  0
  2  8  1  0  0  0
  2  6  1  0  0  0
  3  8  1  0  0  0
  3  4  1  0  0  0
  4  7  1  0  0  0
 21  5  1  0  0  0
 21 22  1  0  0  0
 23 24  2  0  0  0
 25 26  2  0  0  0
 27 22  2  0  0  0
 19 10  1  0  0  0
  8  5  1  0  0  0
 10 17  1  0  0  0
 11 18  1  0  0  0
 12 13  1  0  0  0
 14 15  2  0  0  0
  5  9  2  0  0  0
 22 23  1  0  0  0
 24 25  1  0  0  0
 26 27  1  0  0  0
 19 20  1  0  0  0
M  END
> <minimizedAffinity>
-9.06106

$$$$
CHEMBL3356065


 27 30  0  0  0  0  0  0  0  0999 V2000
   -3.1885   16.0290   -4.9042 C   0  0  0  0  0  0  0  0  0  0  0  0
   -4.2069   17.1281   -5.3289 C   0  0  0  0  0  0  0  0  0  0  0  0
   -3.2606   16.6081   -7.5701 C   0  0  0  0  0  0  0  0  0  0  0  0
   -1.8487   16.6000   -6.9604 C   0  0  0  0  0  0  0  0  0  0  0  0
   -4.6254   18.6303   -7.3593 C   0  0  0  0  0  0  0  0  0  0  0  0
   -5.6167   16.6372   -4.9753 C   0  0  0  0  0  0  0  0  0  0  0  0
   -1.8835   16.1546   -5.5575 N   0  0  0  0  0  0  0  0  0  0  0  0
   -4.1279   17.4769   -6.7681 N   0  0  0  0  0  0  0  0  0  0  0  0
   -4.5537   18.8097   -8.5805 O   0  0  0  0  0  0  0  0  0  0  0  0
    1.0948   16.2963   -3.3992 C   0  0  0  0  0  0  0  0  0  0  0  0
    0.4825   18.3435   -3.9702 C   0  0  0  0  0  0  0  0  0  0  0  0
   -0.8199   16.5920   -4.7821 C   0  0  0  0  0  0  0  0  0  0  0  0
    0.0392   15.7123   -4.0850 C   0  0  0  0  0  0  0  0  0  0  0  0
    0.1177   14.2982   -3.8286 C   0  0  0  0  0  0  0  0  0  0  0  0
    1.2449   14.0913   -3.0509 C   0  0  0  0  0  0  0  0  0  0  0  0
   -0.8276   13.2394   -4.2695 C   0  0  0  0  0  0  0  0  0  0  0  0
    1.3829   17.6018   -3.3073 N   0  0  0  0  0  0  0  0  0  0  0  0
   -0.5853   17.9264   -4.6781 N   0  0  0  0  0  0  0  0  0  0  0  0
    1.8240   15.3066   -2.8038 N   0  0  0  0  0  0  0  0  0  0  0  0
    2.6501   15.4752   -2.2485 H   0  0  0  0  0  0  0  0  0  0  0  0
   -5.2381   19.7152   -6.4811 C   0  0  0  0  0  0  0  0  0  0  0  0
   -4.2377   20.7933   -6.1315 C   0  0  0  0  0  0  0  0  0  0  0  0
   -2.8643   20.5151   -6.0968 C   0  0  0  0  0  0  0  0  0  0  0  0
   -1.9442   21.5220   -5.8027 C   0  0  0  0  0  0  0  0  0  0  0  0
   -2.3859   22.8168   -5.5410 C   0  0  0  0  0  0  0  0  0  0  0  0
   -3.7481   23.1071   -5.5775 C   0  0  0  0  0  0  0  0  0  0  0  0
   -4.6698   22.1021   -5.8751 C   0  0  0  0  0  0  0  0  0  0  0  0
 11 17  2  0  0  0
 12 18  2  0  0  0
 12  7  1  0  0  0
 13 14  1  0  0  0
 13 10  2  0  0  0
 15 19  1  0  0  0
 16 14  1  0  0  0
  1  7  1  0  0  0
  1  2  1  0  0  0
  2  8  1  0  0  0
  2  6  1  0  0  0
  3  8  1  0  0  0
  3  4  1  0  0  0
  4  7  1  0  0  0
 21  5  1  0  0  0
 21 22  1  0  0  0
 23 24  2  0  0  0
 25 26  2  0  0  0
 27 22  2  0  0  0
 19 10  1  0  0  0
  8  5  1  0  0  0
 10 17  1  0  0  0
 11 18  1  0  0  0
 12 13  1  0  0  0
 14 15  2  0  0  0
  5  9  2  0  0  0
 22 23  1  0  0  0
 24 25  1  0  0  0
 26 27  1  0  0  0
 19 20  1  0  0  0
M  END
> <minimizedAffinity>
-8.21453

$$$$
CHEMBL3356065


 27 30  0  0  0  0  0  0  0  0999 V2000
   -1.4741   17.3487   -6.7958 C   0  0  0  0  0  0  0  0  0  0  0  0
   -2.0971   15.9439   -7.0491 C   0  0  0  0  0  0  0  0  0  0  0  0
   -3.8759   16.8845   -5.5860 C   0  0  0  0  0  0  0  0  0  0  0  0
   -2.7933   17.4501   -4.6514 C   0  0  0  0  0  0  0  0  0  0  0  0
   -3.9214   14.4742   -6.0163 C   0  0  0  0  0  0  0  0  0  0  0  0
   -2.3588   15.8002   -8.5539 C   0  0  0  0  0  0  0  0  0  0  0  0
   -1.5749   17.7927   -5.4035 N   0  0  0  0  0  0  0  0  0  0  0  0
   -3.3453   15.7088   -6.2835 N   0  0  0  0  0  0  0  0  0  0  0  0
   -4.9940   14.3828   -5.4084 O   0  0  0  0  0  0  0  0  0  0  0  0
    1.4494   18.8395   -3.5851 C   0  0  0  0  0  0  0  0  0  0  0  0
    1.1417   16.6628   -3.3415 C   0  0  0  0  0  0  0  0  0  0  0  0
   -0.4104   17.8037   -4.6502 C   0  0  0  0  0  0  0  0  0  0  0  0
    0.3394   18.9768   -4.4065 C   0  0  0  0  0  0  0  0  0  0  0  0
    0.3077   20.3539   -4.8240 C   0  0  0  0  0  0  0  0  0  0  0  0
    1.3624   20.9913   -4.1918 C   0  0  0  0  0  0  0  0  0  0  0  0
   -0.6387   20.9956   -5.7735 C   0  0  0  0  0  0  0  0  0  0  0  0
    1.9028   17.7170   -3.0105 N   0  0  0  0  0  0  0  0  0  0  0  0
    0.0419   16.6374   -4.1193 N   0  0  0  0  0  0  0  0  0  0  0  0
    2.0387   20.0639   -3.4461 N   0  0  0  0  0  0  0  0  0  0  0  0
    2.8646   20.2289   -2.8896 H   0  0  0  0  0  0  0  0  0  0  0  0
   -3.1980   13.2036   -6.4472 C   0  0  0  0  0  0  0  0  0  0  0  0
   -2.1322   12.7945   -5.4562 C   0  0  0  0  0  0  0  0  0  0  0  0
   -1.5873   11.5032   -5.4793 C   0  0  0  0  0  0  0  0  0  0  0  0
   -0.5826   11.1415   -4.5812 C   0  0  0  0  0  0  0  0  0  0  0  0
   -0.1111   12.0656   -3.6516 C   0  0  0  0  0  0  0  0  0  0  0  0
   -0.6410   13.3538   -3.6221 C   0  0  0  0  0  0  0  0  0  0  0  0
   -1.6436   13.7185   -4.5221 C   0  0  0  0  0  0  0  0  0  0  0  0
 11 17  2  0  0  0
 12 18  2  0  0  0
 12  7  1  0  0  0
 13 14  1  0  0  0
 13 10  2  0  0  0
 15 19  1  0  0  0
 16 14  1  0  0  0
  1  7  1  0  0  0
  1  2  1  0  0  0
  2  8  1  0  0  0
  2  6  1  0  0  0
  3  8  1  0  0  0
  3  4  1  0  0  0
  4  7  1  0  0  0
 21  5  1  0  0  0
 21 22  1  0  0  0
 23 24  2  0  0  0
 25 26  2  0  0  0
 27 22  2  0  0  0
 19 10  1  0  0  0
  8  5  1  0  0  0
 10 17  1  0  0  0
 11 18  1  0  0  0
 12 13  1  0  0  0
 14 15  2  0  0  0
  5  9  2  0  0  0
 22 23  1  0  0  0
 24 25  1  0  0  0
 26 27  1  0  0  0
 19 20  1  0  0  0
M  END
> <minimizedAffinity>
-8.19110

$$$$
CHEMBL3356065


 27 30  0  0  0  0  0  0  0  0999 V2000
   -4.1538   16.5849   -6.1448 C   0  0  0  0  0  0  0  0  0  0  0  0
   -2.9930   17.3362   -5.4281 C   0  0  0  0  0  0  0  0  0  0  0  0
   -1.9146   17.0091   -7.6460 C   0  0  0  0  0  0  0  0  0  0  0  0
   -2.4308   15.5606   -7.6715 C   0  0  0  0  0  0  0  0  0  0  0  0
   -0.4875   17.7208   -5.7876 C   0  0  0  0  0  0  0  0  0  0  0  0
   -3.4961   18.7312   -5.0347 C   0  0  0  0  0  0  0  0  0  0  0  0
   -3.7069   15.4435   -6.9467 N   0  0  0  0  0  0  0  0  0  0  0  0
   -1.7658   17.4442   -6.2536 N   0  0  0  0  0  0  0  0  0  0  0  0
    0.4683   17.8389   -6.5628 O   0  0  0  0  0  0  0  0  0  0  0  0
   -5.4154   12.4467   -5.6625 C   0  0  0  0  0  0  0  0  0  0  0  0
   -3.2621   12.0237   -5.9386 C   0  0  0  0  0  0  0  0  0  0  0  0
   -3.9865   14.1740   -6.4630 C   0  0  0  0  0  0  0  0  0  0  0  0
   -5.2816   13.7665   -6.0698 C   0  0  0  0  0  0  0  0  0  0  0  0
   -6.5777   14.3741   -5.9195 C   0  0  0  0  0  0  0  0  0  0  0  0
   -7.4405   13.3815   -5.4850 C   0  0  0  0  0  0  0  0  0  0  0  0
   -6.9484   15.7954   -6.1461 C   0  0  0  0  0  0  0  0  0  0  0  0
   -4.4527   11.5181   -5.5820 N   0  0  0  0  0  0  0  0  0  0  0  0
   -2.9754   13.2726   -6.3550 N   0  0  0  0  0  0  0  0  0  0  0  0
   -6.7236   12.2248   -5.3381 N   0  0  0  0  0  0  0  0  0  0  0  0
   -7.0788   11.3362   -5.0168 H   0  0  0  0  0  0  0  0  0  0  0  0
   -0.2499   17.8432   -4.2869 C   0  0  0  0  0  0  0  0  0  0  0  0
    0.4442   16.6250   -3.7218 C   0  0  0  0  0  0  0  0  0  0  0  0
   -0.2276   15.3992   -3.6172 C   0  0  0  0  0  0  0  0  0  0  0  0
    0.4282   14.2713   -3.1226 C   0  0  0  0  0  0  0  0  0  0  0  0
    1.7614   14.3556   -2.7281 C   0  0  0  0  0  0  0  0  0  0  0  0
    2.4416   15.5671   -2.8320 C   0  0  0  0  0  0  0  0  0  0  0  0
    1.7884   16.6956   -3.3300 C   0  0  0  0  0  0  0  0  0  0  0  0
 11 17  2  0  0  0
 12 18  2  0  0  0
 12  7  1  0  0  0
 13 14  1  0  0  0
 13 10  2  0  0  0
 15 19  1  0  0  0
 16 14  1  0  0  0
  1  7  1  0  0  0
  1  2  1  0  0  0
  2  8  1  0  0  0
  2  6  1  0  0  0
  3  8  1  0  0  0
  3  4  1  0  0  0
  4  7  1  0  0  0
 21  5  1  0  0  0
 21 22  1  0  0  0
 23 24  2  0  0  0
 25 26  2  0  0  0
 27 22  2  0  0  0
 19 10  1  0  0  0
  8  5  1  0  0  0
 10 17  1  0  0  0
 11 18  1  0  0  0
 12 13  1  0  0  0
 14 15  2  0  0  0
  5  9  2  0  0  0
 22 23  1  0  0  0
 24 25  1  0  0  0
 26 27  1  0  0  0
 19 20  1  0  0  0
M  END
> <minimizedAffinity>
-8.13668

$$$$
CHEMBL3356065


 27 30  0  0  0  0  0  0  0  0999 V2000
   -3.9478   16.6564   -7.7805 C   0  0  0  0  0  0  0  0  0  0  0  0
   -2.6365   16.2004   -7.0749 C   0  0  0  0  0  0  0  0  0  0  0  0
   -4.1007   16.3706   -5.0708 C   0  0  0  0  0  0  0  0  0  0  0  0
   -4.6526   17.7049   -5.6004 C   0  0  0  0  0  0  0  0  0  0  0  0
   -1.6903   16.1559   -4.6964 C   0  0  0  0  0  0  0  0  0  0  0  0
   -2.2587   14.8151   -7.6149 C   0  0  0  0  0  0  0  0  0  0  0  0
   -4.6531   17.7274   -7.0725 N   0  0  0  0  0  0  0  0  0  0  0  0
   -2.7473   16.1652   -5.5964 N   0  0  0  0  0  0  0  0  0  0  0  0
   -1.8836   16.0764   -3.4778 O   0  0  0  0  0  0  0  0  0  0  0  0
   -5.5696   20.8881   -8.7213 C   0  0  0  0  0  0  0  0  0  0  0  0
   -3.4511   20.9570   -8.0893 C   0  0  0  0  0  0  0  0  0  0  0  0
   -4.6203   18.9949   -7.6347 C   0  0  0  0  0  0  0  0  0  0  0  0
   -5.7400   19.5912   -8.2580 C   0  0  0  0  0  0  0  0  0  0  0  0
   -7.0801   19.2035   -8.6123 C   0  0  0  0  0  0  0  0  0  0  0  0
   -7.6702   20.3000   -9.2188 C   0  0  0  0  0  0  0  0  0  0  0  0
   -7.7282   17.8812   -8.4112 C   0  0  0  0  0  0  0  0  0  0  0  0
   -4.4581   21.6343   -8.6614 N   0  0  0  0  0  0  0  0  0  0  0  0
   -3.4623   19.7045   -7.5927 N   0  0  0  0  0  0  0  0  0  0  0  0
   -6.7461   21.3082   -9.2736 N   0  0  0  0  0  0  0  0  0  0  0  0
   -6.8808   22.2234   -9.6778 H   0  0  0  0  0  0  0  0  0  0  0  0
   -0.2639   16.2852   -5.2181 C   0  0  0  0  0  0  0  0  0  0  0  0
    0.6149   17.0753   -4.2753 C   0  0  0  0  0  0  0  0  0  0  0  0
    1.6577   16.4538   -3.5745 C   0  0  0  0  0  0  0  0  0  0  0  0
    2.4840   17.1948   -2.7288 C   0  0  0  0  0  0  0  0  0  0  0  0
    2.2780   18.5638   -2.5751 C   0  0  0  0  0  0  0  0  0  0  0  0
    1.2482   19.1941   -3.2703 C   0  0  0  0  0  0  0  0  0  0  0  0
    0.4228   18.4552   -4.1194 C   0  0  0  0  0  0  0  0  0  0  0  0
 11 17  2  0  0  0
 12 18  2  0  0  0
 12  7  1  0  0  0
 13 14  1  0  0  0
 13 10  2  0  0  0
 15 19  1  0  0  0
 16 14  1  0  0  0
  1  7  1  0  0  0
  1  2  1  0  0  0
  2  8  1  0  0  0
  2  6  1  0  0  0
  3  8  1  0  0  0
  3  4  1  0  0  0
  4  7  1  0  0  0
 21  5  1  0  0  0
 21 22  1  0  0  0
 23 24  2  0  0  0
 25 26  2  0  0  0
 27 22  2  0  0  0
 19 10  1  0  0  0
  8  5  1  0  0  0
 10 17  1  0  0  0
 11 18  1  0  0  0
 12 13  1  0  0  0
 14 15  2  0  0  0
  5  9  2  0  0  0
 22 23  1  0  0  0
 24 25  1  0  0  0
 26 27  1  0  0  0
 19 20  1  0  0  0
M  END
> <minimizedAffinity>
-7.88694

$$$$
CHEMBL3356065


 27 30  0  0  0  0  0  0  0  0999 V2000
   -1.4514   16.0677   -6.1535 C   0  0  0  0  0  0  0  0  0  0  0  0
   -2.8959   16.2852   -6.6935 C   0  0  0  0  0  0  0  0  0  0  0  0
   -3.2054   17.2194   -4.4086 C   0  0  0  0  0  0  0  0  0  0  0  0
   -2.4206   16.0311   -3.8279 C   0  0  0  0  0  0  0  0  0  0  0  0
   -5.2176   16.7718   -5.7305 C   0  0  0  0  0  0  0  0  0  0  0  0
   -2.8205   17.2394   -7.8924 C   0  0  0  0  0  0  0  0  0  0  0  0
   -1.4089   15.5507   -4.7836 N   0  0  0  0  0  0  0  0  0  0  0  0
   -3.8312   16.8140   -5.6713 N   0  0  0  0  0  0  0  0  0  0  0  0
   -5.9151   17.2849   -4.8480 O   0  0  0  0  0  0  0  0  0  0  0  0
    0.4058   12.4882   -3.8472 C   0  0  0  0  0  0  0  0  0  0  0  0
   -1.5064   11.9594   -4.8248 C   0  0  0  0  0  0  0  0  0  0  0  0
   -1.0276   14.2284   -4.6110 C   0  0  0  0  0  0  0  0  0  0  0  0
    0.1910   13.8504   -4.0027 C   0  0  0  0  0  0  0  0  0  0  0  0
    1.3690   14.5095   -3.5033 C   0  0  0  0  0  0  0  0  0  0  0  0
    2.2103   13.5209   -3.0203 C   0  0  0  0  0  0  0  0  0  0  0  0
    1.6726   15.9644   -3.5166 C   0  0  0  0  0  0  0  0  0  0  0  0
   -0.4027   11.4884   -4.2245 N   0  0  0  0  0  0  0  0  0  0  0  0
   -1.8549   13.2419   -5.0457 N   0  0  0  0  0  0  0  0  0  0  0  0
    1.6124   12.3081   -3.2329 N   0  0  0  0  0  0  0  0  0  0  0  0
    1.9950   11.4027   -3.0027 H   0  0  0  0  0  0  0  0  0  0  0  0
   -5.8940   16.0448   -6.8869 C   0  0  0  0  0  0  0  0  0  0  0  0
   -6.7512   16.9735   -7.7164 C   0  0  0  0  0  0  0  0  0  0  0  0
   -6.2071   18.1283   -8.2951 C   0  0  0  0  0  0  0  0  0  0  0  0
   -6.9966   18.9654   -9.0844 C   0  0  0  0  0  0  0  0  0  0  0  0
   -8.3371   18.6574   -9.3045 C   0  0  0  0  0  0  0  0  0  0  0  0
   -8.8883   17.5095   -8.7390 C   0  0  0  0  0  0  0  0  0  0  0  0
   -8.0992   16.6691   -7.9522 C   0  0  0  0  0  0  0  0  0  0  0  0
 11 17  2  0  0  0
 12 18  2  0  0  0
 12  7  1  0  0  0
 13 14  1  0  0  0
 13 10  2  0  0  0
 15 19  1  0  0  0
 16 14  1  0  0  0
  1  7  1  0  0  0
  1  2  1  0  0  0
  2  8  1  0  0  0
  2  6  1  0  0  0
  3  8  1  0  0  0
  3  4  1  0  0  0
  4  7  1  0  0  0
 21  5  1  0  0  0
 21 22  1  0  0  0
 23 24  2  0  0  0
 25 26  2  0  0  0
 27 22  2  0  0  0
 19 10  1  0  0  0
  8  5  1  0  0  0
 10 17  1  0  0  0
 11 18  1  0  0  0
 12 13  1  0  0  0
 14 15  2  0  0  0
  5  9  2  0  0  0
 22 23  1  0  0  0
 24 25  1  0  0  0
 26 27  1  0  0  0
 19 20  1  0  0  0
M  END
> <minimizedAffinity>
-7.82680

$$$$
CHEMBL3356065


 27 30  0  0  0  0  0  0  0  0999 V2000
   -1.9780   19.3657   -6.8761 C   0  0  0  0  0  0  0  0  0  0  0  0
   -1.4544   18.3367   -5.8308 C   0  0  0  0  0  0  0  0  0  0  0  0
   -3.1183   16.8886   -6.9813 C   0  0  0  0  0  0  0  0  0  0  0  0
   -4.1255   18.0507   -6.9646 C   0  0  0  0  0  0  0  0  0  0  0  0
   -2.2017   16.0908   -4.8552 C   0  0  0  0  0  0  0  0  0  0  0  0
    0.0417   18.1131   -6.0866 C   0  0  0  0  0  0  0  0  0  0  0  0
   -3.4337   19.3483   -7.0381 N   0  0  0  0  0  0  0  0  0  0  0  0
   -2.1821   17.0450   -5.8636 N   0  0  0  0  0  0  0  0  0  0  0  0
   -2.8011   15.0186   -4.9957 O   0  0  0  0  0  0  0  0  0  0  0  0
   -6.0314   21.8630   -6.3475 C   0  0  0  0  0  0  0  0  0  0  0  0
   -4.3343   22.1337   -4.9551 C   0  0  0  0  0  0  0  0  0  0  0  0
   -4.1475   20.4180   -6.5188 C   0  0  0  0  0  0  0  0  0  0  0  0
   -5.4142   20.8102   -7.0082 C   0  0  0  0  0  0  0  0  0  0  0  0
   -6.2880   20.4378   -8.0895 C   0  0  0  0  0  0  0  0  0  0  0  0
   -7.4117   21.2421   -7.9953 C   0  0  0  0  0  0  0  0  0  0  0  0
   -6.0495   19.4155   -9.1417 C   0  0  0  0  0  0  0  0  0  0  0  0
   -5.5553   22.5630   -5.3088 N   0  0  0  0  0  0  0  0  0  0  0  0
   -3.6125   21.1315   -5.4935 N   0  0  0  0  0  0  0  0  0  0  0  0
   -7.2416   22.0937   -6.9373 N   0  0  0  0  0  0  0  0  0  0  0  0
   -7.8861   22.8089   -6.6340 H   0  0  0  0  0  0  0  0  0  0  0  0
   -1.5026   16.3865   -3.5334 C   0  0  0  0  0  0  0  0  0  0  0  0
   -0.1789   15.6654   -3.4186 C   0  0  0  0  0  0  0  0  0  0  0  0
   -0.1167   14.2659   -3.4658 C   0  0  0  0  0  0  0  0  0  0  0  0
    1.1113   13.6078   -3.3894 C   0  0  0  0  0  0  0  0  0  0  0  0
    2.2896   14.3404   -3.2660 C   0  0  0  0  0  0  0  0  0  0  0  0
    2.2413   15.7322   -3.2233 C   0  0  0  0  0  0  0  0  0  0  0  0
    1.0142   16.3923   -3.3032 C   0  0  0  0  0  0  0  0  0  0  0  0
 11 17  2  0  0  0
 12 18  2  0  0  0
 12  7  1  0  0  0
 13 14  1  0  0  0
 13 10  2  0  0  0
 15 19  1  0  0  0
 16 14  1  0  0  0
  1  7  1  0  0  0
  1  2  1  0  0  0
  2  8  1  0  0  0
  2  6  1  0  0  0
  3  8  1  0  0  0
  3  4  1  0  0  0
  4  7  1  0  0  0
 21  5  1  0  0  0
 21 22  1  0  0  0
 23 24  2  0  0  0
 25 26  2  0  0  0
 27 22  2  0  0  0
 19 10  1  0  0  0
  8  5  1  0  0  0
 10 17  1  0  0  0
 11 18  1  0  0  0
 12 13  1  0  0  0
 14 15  2  0  0  0
  5  9  2  0  0  0
 22 23  1  0  0  0
 24 25  1  0  0  0
 26 27  1  0  0  0
 19 20  1  0  0  0
M  END
> <minimizedAffinity>
-7.80676

$$$$
CHEMBL3356065


 27 30  0  0  0  0  0  0  0  0999 V2000
   -3.2372   16.1372   -4.9338 C   0  0  0  0  0  0  0  0  0  0  0  0
   -4.2401   17.2140   -5.4439 C   0  0  0  0  0  0  0  0  0  0  0  0
   -3.2583   16.5502   -7.6313 C   0  0  0  0  0  0  0  0  0  0  0  0
   -1.8575   16.5713   -6.9970 C   0  0  0  0  0  0  0  0  0  0  0  0
   -4.6121   18.5899   -7.5706 C   0  0  0  0  0  0  0  0  0  0  0  0
   -5.6593   16.7545   -5.0859 C   0  0  0  0  0  0  0  0  0  0  0  0
   -1.9200   16.2141   -5.5701 N   0  0  0  0  0  0  0  0  0  0  0  0
   -4.1333   17.4723   -6.9003 N   0  0  0  0  0  0  0  0  0  0  0  0
   -4.5176   18.6927   -8.7991 O   0  0  0  0  0  0  0  0  0  0  0  0
    1.0574   16.4704   -3.4211 C   0  0  0  0  0  0  0  0  0  0  0  0
    0.3895   18.4909   -4.0238 C   0  0  0  0  0  0  0  0  0  0  0  0
   -0.8671   16.6922   -4.8043 C   0  0  0  0  0  0  0  0  0  0  0  0
    0.0165   15.8473   -4.0949 C   0  0  0  0  0  0  0  0  0  0  0  0
    0.1333   14.4402   -3.8160 C   0  0  0  0  0  0  0  0  0  0  0  0
    1.2671   14.2760   -3.0375 C   0  0  0  0  0  0  0  0  0  0  0  0
   -0.7842   13.3494   -4.2375 C   0  0  0  0  0  0  0  0  0  0  0  0
    1.3106   17.7844   -3.3510 N   0  0  0  0  0  0  0  0  0  0  0  0
   -0.6680   18.0339   -4.7224 N   0  0  0  0  0  0  0  0  0  0  0  0
    1.8140   15.5103   -2.8115 N   0  0  0  0  0  0  0  0  0  0  0  0
    2.6362   15.7099   -2.2609 H   0  0  0  0  0  0  0  0  0  0  0  0
   -5.2322   19.7308   -6.7725 C   0  0  0  0  0  0  0  0  0  0  0  0
   -5.8412   20.7844   -7.6694 C   0  0  0  0  0  0  0  0  0  0  0  0
   -7.0188   20.5260   -8.3843 C   0  0  0  0  0  0  0  0  0  0  0  0
   -7.5920   21.5130   -9.1870 C   0  0  0  0  0  0  0  0  0  0  0  0
   -6.9956   22.7681   -9.2834 C   0  0  0  0  0  0  0  0  0  0  0  0
   -5.8276   23.0389   -8.5735 C   0  0  0  0  0  0  0  0  0  0  0  0
   -5.2549   22.0540   -7.7673 C   0  0  0  0  0  0  0  0  0  0  0  0
 11 17  2  0  0  0
 12 18  2  0  0  0
 12  7  1  0  0  0
 13 14  1  0  0  0
 13 10  2  0  0  0
 15 19  1  0  0  0
 16 14  1  0  0  0
  1  7  1  0  0  0
  1  2  1  0  0  0
  2  8  1  0  0  0
  2  6  1  0  0  0
  3  8  1  0  0  0
  3  4  1  0  0  0
  4  7  1  0  0  0
 21  5  1  0  0  0
 21 22  1  0  0  0
 23 24  2  0  0  0
 25 26  2  0  0  0
 27 22  2  0  0  0
 19 10  1  0  0  0
  8  5  1  0  0  0
 10 17  1  0  0  0
 11 18  1  0  0  0
 12 13  1  0  0  0
 14 15  2  0  0  0
  5  9  2  0  0  0
 22 23  1  0  0  0
 24 25  1  0  0  0
 26 27  1  0  0  0
 19 20  1  0  0  0
M  END
> <minimizedAffinity>
-7.80650

$$$$
CHEMBL1630790


 28 31  0  0  0  0  0  0  0  0999 V2000
   -1.8748   16.1117   -4.7644 N   0  0  0  0  0  0  0  0  0  0  0  0
   -3.7628   16.8215   -6.2940 C   0  0  0  0  0  0  0  0  0  0  0  0
   -3.3286   16.3488   -4.8793 C   0  0  0  0  0  0  0  0  0  0  0  0
   -1.1266   17.2922   -5.1832 C   0  0  0  0  0  0  0  0  0  0  0  0
   -1.4278   17.7096   -6.6347 C   0  0  0  0  0  0  0  0  0  0  0  0
   -2.5974   16.9544   -7.3083 C   0  0  0  0  0  0  0  0  0  0  0  0
   -2.0867   15.6546   -7.9388 C   0  0  0  0  0  0  0  0  0  0  0  0
   -4.9727   16.1635   -6.8411 N   0  0  0  0  0  0  0  0  0  0  0  0
   -5.6210   16.7839   -7.9822 C   0  0  0  0  0  0  0  0  0  0  0  0
   -6.7654   14.9788   -5.8642 N   0  0  0  0  0  0  0  0  0  0  0  0
   -6.7637   12.6546   -5.2427 N   0  0  0  0  0  0  0  0  0  0  0  0
   -4.6682   11.5847   -5.6049 N   0  0  0  0  0  0  0  0  0  0  0  0
   -7.3263   13.8593   -5.3786 C   0  0  0  0  0  0  0  0  0  0  0  0
   -5.4894   12.6756   -5.6513 C   0  0  0  0  0  0  0  0  0  0  0  0
   -3.4216   11.9227   -6.0533 C   0  0  0  0  0  0  0  0  0  0  0  0
   -3.4579   13.2558   -6.4064 C   0  0  0  0  0  0  0  0  0  0  0  0
   -4.7795   13.7525   -6.1740 C   0  0  0  0  0  0  0  0  0  0  0  0
   -5.4783   14.9834   -6.3087 C   0  0  0  0  0  0  0  0  0  0  0  0
   -4.9637   10.6797   -5.2674 H   0  0  0  0  0  0  0  0  0  0  0  0
   -1.5132   15.6548   -3.4185 C   0  0  0  0  0  0  0  0  0  0  0  0
   -0.2175   14.8782   -3.4284 C   0  0  0  0  0  0  0  0  0  0  0  0
   -0.2043   13.4962   -3.6290 C   0  0  0  0  0  0  0  0  0  0  0  0
    0.9994   12.7976   -3.6602 C   0  0  0  0  0  0  0  0  0  0  0  0
    2.2111   13.4597   -3.4859 C   0  0  0  0  0  0  0  0  0  0  0  0
    2.2169   14.8389   -3.2843 C   0  0  0  0  0  0  0  0  0  0  0  0
    1.0101   15.5443   -3.2619 C   0  0  0  0  0  0  0  0  0  0  0  0
    1.0031   11.4716   -3.8578 F   0  0  0  0  0  0  0  0  0  0  0  0
   -1.3578   12.8315   -3.7959 F   0  0  0  0  0  0  0  0  0  0  0  0
 12 15  1  0  0  0
 13 11  2  0  0  0
 14 12  1  0  0  0
 16 17  1  0  0  0
 17 14  2  0  0  0
 18  8  1  0  0  0
 18 10  2  0  0  0
  2  8  1  0  0  0
  2  3  1  0  0  0
  3  1  1  0  0  0
  4  1  1  0  0  0
  4  5  1  0  0  0
  5  6  1  0  0  0
  6  7  1  0  0  0
  6  2  1  0  0  0
 20  1  1  0  0  0
 20 21  1  0  0  0
 22 23  2  0  0  0
 22 28  1  0  0  0
 23 27  1  0  0  0
 24 25  2  0  0  0
 26 21  2  0  0  0
  9  8  1  0  0  0
 13 10  1  0  0  0
 14 11  1  0  0  0
 15 16  2  0  0  0
 17 18  1  0  0  0
 21 22  1  0  0  0
 23 24  1  0  0  0
 25 26  1  0  0  0
 12 19  1  0  0  0
M  END
> <minimizedAffinity>
-9.65999

$$$$
CHEMBL1630790


 28 31  0  0  0  0  0  0  0  0999 V2000
   -1.6437   16.2407   -4.7068 N   0  0  0  0  0  0  0  0  0  0  0  0
   -3.4994   17.0659   -6.2180 C   0  0  0  0  0  0  0  0  0  0  0  0
   -3.0784   16.5803   -4.8037 C   0  0  0  0  0  0  0  0  0  0  0  0
   -0.8194   17.3593   -5.1519 C   0  0  0  0  0  0  0  0  0  0  0  0
   -1.1123   17.7798   -6.6042 C   0  0  0  0  0  0  0  0  0  0  0  0
   -2.3433   17.1025   -7.2508 C   0  0  0  0  0  0  0  0  0  0  0  0
   -1.9368   15.7618   -7.8715 C   0  0  0  0  0  0  0  0  0  0  0  0
   -4.7616   16.4899   -6.7388 N   0  0  0  0  0  0  0  0  0  0  0  0
   -5.5181   17.2763   -7.6961 C   0  0  0  0  0  0  0  0  0  0  0  0
   -4.4219   14.1581   -6.6016 N   0  0  0  0  0  0  0  0  0  0  0  0
   -5.9060   12.5620   -5.5827 N   0  0  0  0  0  0  0  0  0  0  0  0
   -7.9164   13.5366   -4.7611 N   0  0  0  0  0  0  0  0  0  0  0  0
   -4.7855   12.9244   -6.2149 C   0  0  0  0  0  0  0  0  0  0  0  0
   -6.6967   13.6208   -5.3708 C   0  0  0  0  0  0  0  0  0  0  0  0
   -8.5014   14.7717   -4.7206 C   0  0  0  0  0  0  0  0  0  0  0  0
   -7.6248   15.6623   -5.3052 C   0  0  0  0  0  0  0  0  0  0  0  0
   -6.4537   14.9480   -5.7120 C   0  0  0  0  0  0  0  0  0  0  0  0
   -5.2173   15.2349   -6.3527 C   0  0  0  0  0  0  0  0  0  0  0  0
   -8.3082   12.6714   -4.4171 H   0  0  0  0  0  0  0  0  0  0  0  0
   -1.2950   15.7754   -3.3604 C   0  0  0  0  0  0  0  0  0  0  0  0
   -0.1135   14.8346   -3.3899 C   0  0  0  0  0  0  0  0  0  0  0  0
   -0.2799   13.4724   -3.6487 C   0  0  0  0  0  0  0  0  0  0  0  0
    0.8211   12.6221   -3.6973 C   0  0  0  0  0  0  0  0  0  0  0  0
    2.1068   13.1098   -3.4827 C   0  0  0  0  0  0  0  0  0  0  0  0
    2.2918   14.4667   -3.2228 C   0  0  0  0  0  0  0  0  0  0  0  0
    1.1887   15.3245   -3.1828 C   0  0  0  0  0  0  0  0  0  0  0  0
    0.6526   11.3165   -3.9508 F   0  0  0  0  0  0  0  0  0  0  0  0
   -1.5085   12.9741   -3.8555 F   0  0  0  0  0  0  0  0  0  0  0  0
 12 15  1  0  0  0
 13 11  2  0  0  0
 14 12  1  0  0  0
 16 17  1  0  0  0
 17 14  2  0  0  0
 18  8  1  0  0  0
 18 10  2  0  0  0
  2  8  1  0  0  0
  2  3  1  0  0  0
  3  1  1  0  0  0
  4  1  1  0  0  0
  4  5  1  0  0  0
  5  6  1  0  0  0
  6  7  1  0  0  0
  6  2  1  0  0  0
 20  1  1  0  0  0
 20 21  1  0  0  0
 22 23  2  0  0  0
 22 28  1  0  0  0
 23 27  1  0  0  0
 24 25  2  0  0  0
 26 21  2  0  0  0
  9  8  1  0  0  0
 13 10  1  0  0  0
 14 11  1  0  0  0
 15 16  2  0  0  0
 17 18  1  0  0  0
 21 22  1  0  0  0
 23 24  1  0  0  0
 25 26  1  0  0  0
 12 19  1  0  0  0
M  END
> <minimizedAffinity>
-9.65663

$$$$
CHEMBL1630790


 28 31  0  0  0  0  0  0  0  0999 V2000
   -1.7187   16.3306   -4.7784 N   0  0  0  0  0  0  0  0  0  0  0  0
   -3.6260   17.1222   -6.2426 C   0  0  0  0  0  0  0  0  0  0  0  0
   -3.1165   16.8086   -4.8090 C   0  0  0  0  0  0  0  0  0  0  0  0
   -0.8382   17.2726   -5.4612 C   0  0  0  0  0  0  0  0  0  0  0  0
   -1.2308   17.5024   -6.9325 C   0  0  0  0  0  0  0  0  0  0  0  0
   -2.5792   16.8769   -7.3601 C   0  0  0  0  0  0  0  0  0  0  0  0
   -2.3672   15.4223   -7.7925 C   0  0  0  0  0  0  0  0  0  0  0  0
   -4.9831   16.6184   -6.5599 N   0  0  0  0  0  0  0  0  0  0  0  0
   -5.3947   15.3629   -5.9588 C   0  0  0  0  0  0  0  0  0  0  0  0
   -6.9429   16.6541   -7.8750 N   0  0  0  0  0  0  0  0  0  0  0  0
   -7.8342   18.5562   -9.0481 N   0  0  0  0  0  0  0  0  0  0  0  0
   -6.4681   20.4975   -8.8694 N   0  0  0  0  0  0  0  0  0  0  0  0
   -7.8467   17.2820   -8.6448 C   0  0  0  0  0  0  0  0  0  0  0  0
   -6.7467   19.1891   -8.5919 C   0  0  0  0  0  0  0  0  0  0  0  0
   -5.2770   20.8497   -8.2979 C   0  0  0  0  0  0  0  0  0  0  0  0
   -4.7969   19.7423   -7.6298 C   0  0  0  0  0  0  0  0  0  0  0  0
   -5.7332   18.6724   -7.7902 C   0  0  0  0  0  0  0  0  0  0  0  0
   -5.8562   17.3144   -7.3876 C   0  0  0  0  0  0  0  0  0  0  0  0
   -7.0657   21.0867   -9.4315 H   0  0  0  0  0  0  0  0  0  0  0  0
   -1.2856   16.0348   -3.4088 C   0  0  0  0  0  0  0  0  0  0  0  0
   -0.1022   15.0960   -3.3944 C   0  0  0  0  0  0  0  0  0  0  0  0
   -0.2570   13.7332   -3.6569 C   0  0  0  0  0  0  0  0  0  0  0  0
    0.8466   12.8846   -3.6645 C   0  0  0  0  0  0  0  0  0  0  0  0
    2.1229   13.3749   -3.4046 C   0  0  0  0  0  0  0  0  0  0  0  0
    2.2961   14.7325   -3.1403 C   0  0  0  0  0  0  0  0  0  0  0  0
    1.1908   15.5885   -3.1413 C   0  0  0  0  0  0  0  0  0  0  0  0
    0.6895   11.5784   -3.9219 F   0  0  0  0  0  0  0  0  0  0  0  0
   -1.4764   13.2324   -3.9069 F   0  0  0  0  0  0  0  0  0  0  0  0
 12 15  1  0  0  0
 13 11  2  0  0  0
 14 12  1  0  0  0
 16 17  1  0  0  0
 17 14  2  0  0  0
 18  8  1  0  0  0
 18 10  2  0  0  0
  2  8  1  0  0  0
  2  3  1  0  0  0
  3  1  1  0  0  0
  4  1  1  0  0  0
  4  5  1  0  0  0
  5  6  1  0  0  0
  6  7  1  0  0  0
  6  2  1  0  0  0
 20  1  1  0  0  0
 20 21  1  0  0  0
 22 23  2  0  0  0
 22 28  1  0  0  0
 23 27  1  0  0  0
 24 25  2  0  0  0
 26 21  2  0  0  0
  9  8  1  0  0  0
 13 10  1  0  0  0
 14 11  1  0  0  0
 15 16  2  0  0  0
 17 18  1  0  0  0
 21 22  1  0  0  0
 23 24  1  0  0  0
 25 26  1  0  0  0
 12 19  1  0  0  0
M  END
> <minimizedAffinity>
-9.13886

$$$$
CHEMBL1630790


 28 31  0  0  0  0  0  0  0  0999 V2000
   -4.8486   15.8013   -6.0023 N   0  0  0  0  0  0  0  0  0  0  0  0
   -2.4794   15.3948   -5.2084 C   0  0  0  0  0  0  0  0  0  0  0  0
   -3.8379   16.1096   -4.9696 C   0  0  0  0  0  0  0  0  0  0  0  0
   -5.0232   14.3590   -6.1364 C   0  0  0  0  0  0  0  0  0  0  0  0
   -3.7203   13.6292   -6.5124 C   0  0  0  0  0  0  0  0  0  0  0  0
   -2.4427   14.5002   -6.4746 C   0  0  0  0  0  0  0  0  0  0  0  0
   -2.2596   15.2186   -7.8156 C   0  0  0  0  0  0  0  0  0  0  0  0
   -1.2754   16.2393   -5.0259 N   0  0  0  0  0  0  0  0  0  0  0  0
   -1.2728   17.5535   -5.6423 C   0  0  0  0  0  0  0  0  0  0  0  0
   -0.0338   14.4820   -4.0553 N   0  0  0  0  0  0  0  0  0  0  0  0
    2.0301   14.7017   -2.8386 N   0  0  0  0  0  0  0  0  0  0  0  0
    2.7294   16.9615   -2.5712 N   0  0  0  0  0  0  0  0  0  0  0  0
    1.0246   14.0065   -3.3790 C   0  0  0  0  0  0  0  0  0  0  0  0
    1.8610   16.0147   -3.0358 C   0  0  0  0  0  0  0  0  0  0  0  0
    2.2735   18.2089   -2.8958 C   0  0  0  0  0  0  0  0  0  0  0  0
    1.0957   18.0479   -3.5960 C   0  0  0  0  0  0  0  0  0  0  0  0
    0.8232   16.6482   -3.7129 C   0  0  0  0  0  0  0  0  0  0  0  0
   -0.1812   15.8169   -4.2802 C   0  0  0  0  0  0  0  0  0  0  0  0
    3.5677   16.7411   -2.0524 H   0  0  0  0  0  0  0  0  0  0  0  0
   -6.1080   16.5070   -5.7440 C   0  0  0  0  0  0  0  0  0  0  0  0
   -6.6465   17.1530   -6.9989 C   0  0  0  0  0  0  0  0  0  0  0  0
   -7.8981   16.8052   -7.5114 C   0  0  0  0  0  0  0  0  0  0  0  0
   -8.3918   17.4270   -8.6548 C   0  0  0  0  0  0  0  0  0  0  0  0
   -7.6469   18.4011   -9.3130 C   0  0  0  0  0  0  0  0  0  0  0  0
   -6.3954   18.7606   -8.8157 C   0  0  0  0  0  0  0  0  0  0  0  0
   -5.9013   18.1445   -7.6622 C   0  0  0  0  0  0  0  0  0  0  0  0
   -9.5964   17.0901   -9.1374 F   0  0  0  0  0  0  0  0  0  0  0  0
   -8.6363   15.8665   -6.8995 F   0  0  0  0  0  0  0  0  0  0  0  0
 12 15  1  0  0  0
 13 11  2  0  0  0
 14 12  1  0  0  0
 16 17  1  0  0  0
 17 14  2  0  0  0
 18  8  1  0  0  0
 18 10  2  0  0  0
  2  8  1  0  0  0
  2  3  1  0  0  0
  3  1  1  0  0  0
  4  1  1  0  0  0
  4  5  1  0  0  0
  5  6  1  0  0  0
  6  7  1  0  0  0
  6  2  1  0  0  0
 20  1  1  0  0  0
 20 21  1  0  0  0
 22 23  2  0  0  0
 22 28  1  0  0  0
 23 27  1  0  0  0
 24 25  2  0  0  0
 26 21  2  0  0  0
  9  8  1  0  0  0
 13 10  1  0  0  0
 14 11  1  0  0  0
 15 16  2  0  0  0
 17 18  1  0  0  0
 21 22  1  0  0  0
 23 24  1  0  0  0
 25 26  1  0  0  0
 12 19  1  0  0  0
M  END
> <minimizedAffinity>
-8.97366

$$$$
CHEMBL1630790


 28 31  0  0  0  0  0  0  0  0999 V2000
   -4.5159   16.1980   -6.0520 N   0  0  0  0  0  0  0  0  0  0  0  0
   -2.3199   15.3469   -5.1241 C   0  0  0  0  0  0  0  0  0  0  0  0
   -3.6746   16.0547   -4.8460 C   0  0  0  0  0  0  0  0  0  0  0  0
   -4.7146   14.9044   -6.6971 C   0  0  0  0  0  0  0  0  0  0  0  0
   -3.3931   14.2334   -7.1154 C   0  0  0  0  0  0  0  0  0  0  0  0
   -2.1100   14.9281   -6.6023 C   0  0  0  0  0  0  0  0  0  0  0  0
   -1.6901   16.0353   -7.5748 C   0  0  0  0  0  0  0  0  0  0  0  0
   -1.1334   15.9747   -4.4960 N   0  0  0  0  0  0  0  0  0  0  0  0
   -1.1731   17.4062   -4.2589 C   0  0  0  0  0  0  0  0  0  0  0  0
    1.1435   15.9069   -3.8772 N   0  0  0  0  0  0  0  0  0  0  0  0
    2.3934   13.9443   -3.2656 N   0  0  0  0  0  0  0  0  0  0  0  0
    1.1311   11.9332   -3.4358 N   0  0  0  0  0  0  0  0  0  0  0  0
    2.2461   15.2568   -3.4709 C   0  0  0  0  0  0  0  0  0  0  0  0
    1.2587   13.2894   -3.5394 C   0  0  0  0  0  0  0  0  0  0  0  0
   -0.1269   11.5549   -3.8149 C   0  0  0  0  0  0  0  0  0  0  0  0
   -0.8176   12.7005   -4.1523 C   0  0  0  0  0  0  0  0  0  0  0  0
    0.0468   13.8252   -3.9648 C   0  0  0  0  0  0  0  0  0  0  0  0
   -0.0165   15.2369   -4.1219 C   0  0  0  0  0  0  0  0  0  0  0  0
    1.8801   11.3250   -3.1367 H   0  0  0  0  0  0  0  0  0  0  0  0
   -5.7764   16.8822   -5.7453 C   0  0  0  0  0  0  0  0  0  0  0  0
   -6.5068   17.2852   -7.0048 C   0  0  0  0  0  0  0  0  0  0  0  0
   -7.7574   16.7488   -7.3185 C   0  0  0  0  0  0  0  0  0  0  0  0
   -8.4296   17.1484   -8.4702 C   0  0  0  0  0  0  0  0  0  0  0  0
   -7.8672   18.0835   -9.3339 C   0  0  0  0  0  0  0  0  0  0  0  0
   -6.6195   18.6293   -9.0368 C   0  0  0  0  0  0  0  0  0  0  0  0
   -5.9465   18.2367   -7.8760 C   0  0  0  0  0  0  0  0  0  0  0  0
   -9.6319   16.6317   -8.7613 F   0  0  0  0  0  0  0  0  0  0  0  0
   -8.3217   15.8425   -6.5057 F   0  0  0  0  0  0  0  0  0  0  0  0
 12 15  1  0  0  0
 13 11  2  0  0  0
 14 12  1  0  0  0
 16 17  1  0  0  0
 17 14  2  0  0  0
 18  8  1  0  0  0
 18 10  2  0  0  0
  2  8  1  0  0  0
  2  3  1  0  0  0
  3  1  1  0  0  0
  4  1  1  0  0  0
  4  5  1  0  0  0
  5  6  1  0  0  0
  6  7  1  0  0  0
  6  2  1  0  0  0
 20  1  1  0  0  0
 20 21  1  0  0  0
 22 23  2  0  0  0
 22 28  1  0  0  0
 23 27  1  0  0  0
 24 25  2  0  0  0
 26 21  2  0  0  0
  9  8  1  0  0  0
 13 10  1  0  0  0
 14 11  1  0  0  0
 15 16  2  0  0  0
 17 18  1  0  0  0
 21 22  1  0  0  0
 23 24  1  0  0  0
 25 26  1  0  0  0
 12 19  1  0  0  0
M  END
> <minimizedAffinity>
-8.95698

$$$$
CHEMBL1630790


 28 31  0  0  0  0  0  0  0  0999 V2000
   -2.5091   16.7577   -5.6802 N   0  0  0  0  0  0  0  0  0  0  0  0
   -4.6626   16.8647   -7.0065 C   0  0  0  0  0  0  0  0  0  0  0  0
   -3.7475   17.5216   -5.9367 C   0  0  0  0  0  0  0  0  0  0  0  0
   -1.7854   16.5186   -6.9243 C   0  0  0  0  0  0  0  0  0  0  0  0
   -2.6171   15.7427   -7.9625 C   0  0  0  0  0  0  0  0  0  0  0  0
   -4.1068   15.5432   -7.5975 C   0  0  0  0  0  0  0  0  0  0  0  0
   -4.2707   14.2859   -6.7372 C   0  0  0  0  0  0  0  0  0  0  0  0
   -6.1050   16.8203   -6.6692 N   0  0  0  0  0  0  0  0  0  0  0  0
   -6.4747   16.3525   -5.3457 C   0  0  0  0  0  0  0  0  0  0  0  0
   -8.0811   16.3432   -7.8689 N   0  0  0  0  0  0  0  0  0  0  0  0
   -9.2608   17.8525   -9.3245 N   0  0  0  0  0  0  0  0  0  0  0  0
   -8.1797   19.9588   -9.5729 N   0  0  0  0  0  0  0  0  0  0  0  0
   -9.0830   16.6872   -8.6945 C   0  0  0  0  0  0  0  0  0  0  0  0
   -8.2634   18.7007   -9.0469 C   0  0  0  0  0  0  0  0  0  0  0  0
   -7.0372   20.5696   -9.1360 C   0  0  0  0  0  0  0  0  0  0  0  0
   -6.3891   19.6828   -8.3012 C   0  0  0  0  0  0  0  0  0  0  0  0
   -7.1680   18.4856   -8.2158 C   0  0  0  0  0  0  0  0  0  0  0  0
   -7.0876   17.2237   -7.5656 C   0  0  0  0  0  0  0  0  0  0  0  0
   -8.8681   20.3455  -10.2028 H   0  0  0  0  0  0  0  0  0  0  0  0
   -1.6841   17.4067   -4.6559 C   0  0  0  0  0  0  0  0  0  0  0  0
   -0.6350   16.4649   -4.1133 C   0  0  0  0  0  0  0  0  0  0  0  0
    0.6085   16.9359   -3.6866 C   0  0  0  0  0  0  0  0  0  0  0  0
    1.5560   16.0592   -3.1657 C   0  0  0  0  0  0  0  0  0  0  0  0
    1.2866   14.6975   -3.0660 C   0  0  0  0  0  0  0  0  0  0  0  0
    0.0507   14.2096   -3.4874 C   0  0  0  0  0  0  0  0  0  0  0  0
   -0.9062   15.0892   -4.0021 C   0  0  0  0  0  0  0  0  0  0  0  0
    2.7456   16.5206   -2.7543 F   0  0  0  0  0  0  0  0  0  0  0  0
    0.8968   18.2434   -3.7747 F   0  0  0  0  0  0  0  0  0  0  0  0
 12 15  1  0  0  0
 13 11  2  0  0  0
 14 12  1  0  0  0
 16 17  1  0  0  0
 17 14  2  0  0  0
 18  8  1  0  0  0
 18 10  2  0  0  0
  2  8  1  0  0  0
  2  3  1  0  0  0
  3  1  1  0  0  0
  4  1  1  0  0  0
  4  5  1  0  0  0
  5  6  1  0  0  0
  6  7  1  0  0  0
  6  2  1  0  0  0
 20  1  1  0  0  0
 20 21  1  0  0  0
 22 23  2  0  0  0
 22 28  1  0  0  0
 23 27  1  0  0  0
 24 25  2  0  0  0
 26 21  2  0  0  0
  9  8  1  0  0  0
 13 10  1  0  0  0
 14 11  1  0  0  0
 15 16  2  0  0  0
 17 18  1  0  0  0
 21 22  1  0  0  0
 23 24  1  0  0  0
 25 26  1  0  0  0
 12 19  1  0  0  0
M  END
> <minimizedAffinity>
-8.92672

$$$$
CHEMBL1630790


 28 31  0  0  0  0  0  0  0  0999 V2000
   -3.9799   14.4079   -6.4017 N   0  0  0  0  0  0  0  0  0  0  0  0
   -4.8740   16.5869   -7.3295 C   0  0  0  0  0  0  0  0  0  0  0  0
   -3.9247   15.3721   -7.5199 C   0  0  0  0  0  0  0  0  0  0  0  0
   -5.3531   13.9770   -6.1617 C   0  0  0  0  0  0  0  0  0  0  0  0
   -6.2993   15.1459   -5.8299 C   0  0  0  0  0  0  0  0  0  0  0  0
   -5.6931   16.5569   -6.0131 C   0  0  0  0  0  0  0  0  0  0  0  0
   -4.9558   16.9790   -4.7380 C   0  0  0  0  0  0  0  0  0  0  0  0
   -4.2870   17.9094   -7.6500 N   0  0  0  0  0  0  0  0  0  0  0  0
   -4.9616   18.7245   -8.6438 C   0  0  0  0  0  0  0  0  0  0  0  0
   -2.0504   17.5682   -6.9771 N   0  0  0  0  0  0  0  0  0  0  0  0
   -0.6450   19.1631   -5.8503 N   0  0  0  0  0  0  0  0  0  0  0  0
   -1.7609   21.2012   -5.3329 N   0  0  0  0  0  0  0  0  0  0  0  0
   -0.8994   17.9823   -6.4225 C   0  0  0  0  0  0  0  0  0  0  0  0
   -1.7310   19.9450   -5.8693 C   0  0  0  0  0  0  0  0  0  0  0  0
   -3.0117   21.7355   -5.4716 C   0  0  0  0  0  0  0  0  0  0  0  0
   -3.7889   20.8014   -6.1249 C   0  0  0  0  0  0  0  0  0  0  0  0
   -2.9818   19.6538   -6.4055 C   0  0  0  0  0  0  0  0  0  0  0  0
   -3.1410   18.3824   -7.0217 C   0  0  0  0  0  0  0  0  0  0  0  0
   -0.9640   21.6365   -4.8904 H   0  0  0  0  0  0  0  0  0  0  0  0
   -3.0596   13.2867   -6.6177 C   0  0  0  0  0  0  0  0  0  0  0  0
   -2.0121   13.2148   -5.5315 C   0  0  0  0  0  0  0  0  0  0  0  0
   -1.4725   11.9919   -5.1271 C   0  0  0  0  0  0  0  0  0  0  0  0
   -0.4899   11.9437   -4.1422 C   0  0  0  0  0  0  0  0  0  0  0  0
   -0.0312   13.1099   -3.5370 C   0  0  0  0  0  0  0  0  0  0  0  0
   -0.5587   14.3395   -3.9280 C   0  0  0  0  0  0  0  0  0  0  0  0
   -1.5388   14.3916   -4.9236 C   0  0  0  0  0  0  0  0  0  0  0  0
    0.0258   10.7657   -3.7631 F   0  0  0  0  0  0  0  0  0  0  0  0
   -1.8989   10.8513   -5.6906 F   0  0  0  0  0  0  0  0  0  0  0  0
 12 15  1  0  0  0
 13 11  2  0  0  0
 14 12  1  0  0  0
 16 17  1  0  0  0
 17 14  2  0  0  0
 18  8  1  0  0  0
 18 10  2  0  0  0
  2  8  1  0  0  0
  2  3  1  0  0  0
  3  1  1  0  0  0
  4  1  1  0  0  0
  4  5  1  0  0  0
  5  6  1  0  0  0
  6  7  1  0  0  0
  6  2  1  0  0  0
 20  1  1  0  0  0
 20 21  1  0  0  0
 22 23  2  0  0  0
 22 28  1  0  0  0
 23 27  1  0  0  0
 24 25  2  0  0  0
 26 21  2  0  0  0
  9  8  1  0  0  0
 13 10  1  0  0  0
 14 11  1  0  0  0
 15 16  2  0  0  0
 17 18  1  0  0  0
 21 22  1  0  0  0
 23 24  1  0  0  0
 25 26  1  0  0  0
 12 19  1  0  0  0
M  END
> <minimizedAffinity>
-8.80533

$$$$
CHEMBL1630790


 28 31  0  0  0  0  0  0  0  0999 V2000
   -4.0803   14.4223   -6.4404 N   0  0  0  0  0  0  0  0  0  0  0  0
   -5.3815   16.4164   -7.2998 C   0  0  0  0  0  0  0  0  0  0  0  0
   -4.2369   15.3943   -7.5420 C   0  0  0  0  0  0  0  0  0  0  0  0
   -5.3450   13.7487   -6.1653 C   0  0  0  0  0  0  0  0  0  0  0  0
   -6.4735   14.7243   -5.7827 C   0  0  0  0  0  0  0  0  0  0  0  0
   -6.1365   16.2234   -5.9591 C   0  0  0  0  0  0  0  0  0  0  0  0
   -5.4436   16.7554   -4.7003 C   0  0  0  0  0  0  0  0  0  0  0  0
   -5.0522   17.8266   -7.6143 N   0  0  0  0  0  0  0  0  0  0  0  0
   -3.6716   18.2479   -7.4608 C   0  0  0  0  0  0  0  0  0  0  0  0
   -5.8274   20.0498   -7.7829 N   0  0  0  0  0  0  0  0  0  0  0  0
   -7.8081   20.7819   -8.9359 N   0  0  0  0  0  0  0  0  0  0  0  0
   -9.0712   18.9920   -9.8673 N   0  0  0  0  0  0  0  0  0  0  0  0
   -6.6950   20.9762   -8.2218 C   0  0  0  0  0  0  0  0  0  0  0  0
   -7.9985   19.4790   -9.1754 C   0  0  0  0  0  0  0  0  0  0  0  0
   -9.0100   17.6271   -9.9180 C   0  0  0  0  0  0  0  0  0  0  0  0
   -7.8632   17.2410   -9.2554 C   0  0  0  0  0  0  0  0  0  0  0  0
   -7.1906   18.4141   -8.7879 C   0  0  0  0  0  0  0  0  0  0  0  0
   -6.0110   18.7291   -8.0593 C   0  0  0  0  0  0  0  0  0  0  0  0
   -9.7952   19.5788  -10.2568 H   0  0  0  0  0  0  0  0  0  0  0  0
   -2.9818   13.4874   -6.7056 C   0  0  0  0  0  0  0  0  0  0  0  0
   -1.9941   13.4574   -5.5630 C   0  0  0  0  0  0  0  0  0  0  0  0
   -1.4826   12.2508   -5.0807 C   0  0  0  0  0  0  0  0  0  0  0  0
   -0.5541   12.2404   -4.0435 C   0  0  0  0  0  0  0  0  0  0  0  0
   -0.1227   13.4293   -3.4628 C   0  0  0  0  0  0  0  0  0  0  0  0
   -0.6229   14.6431   -3.9313 C   0  0  0  0  0  0  0  0  0  0  0  0
   -1.5482   14.6569   -4.9791 C   0  0  0  0  0  0  0  0  0  0  0  0
   -0.0649   11.0776   -3.5897 F   0  0  0  0  0  0  0  0  0  0  0  0
   -1.8837   11.0891   -5.6192 F   0  0  0  0  0  0  0  0  0  0  0  0
 12 15  1  0  0  0
 13 11  2  0  0  0
 14 12  1  0  0  0
 16 17  1  0  0  0
 17 14  2  0  0  0
 18  8  1  0  0  0
 18 10  2  0  0  0
  2  8  1  0  0  0
  2  3  1  0  0  0
  3  1  1  0  0  0
  4  1  1  0  0  0
  4  5  1  0  0  0
  5  6  1  0  0  0
  6  7  1  0  0  0
  6  2  1  0  0  0
 20  1  1  0  0  0
 20 21  1  0  0  0
 22 23  2  0  0  0
 22 28  1  0  0  0
 23 27  1  0  0  0
 24 25  2  0  0  0
 26 21  2  0  0  0
  9  8  1  0  0  0
 13 10  1  0  0  0
 14 11  1  0  0  0
 15 16  2  0  0  0
 17 18  1  0  0  0
 21 22  1  0  0  0
 23 24  1  0  0  0
 25 26  1  0  0  0
 12 19  1  0  0  0
M  END
> <minimizedAffinity>
-8.74631

$$$$
CHEMBL1630790


 28 31  0  0  0  0  0  0  0  0999 V2000
   -3.7059   14.5686   -6.6542 N   0  0  0  0  0  0  0  0  0  0  0  0
   -1.6435   15.5955   -5.6053 C   0  0  0  0  0  0  0  0  0  0  0  0
   -2.8032   14.5688   -5.4846 C   0  0  0  0  0  0  0  0  0  0  0  0
   -2.9501   14.3743   -7.8870 C   0  0  0  0  0  0  0  0  0  0  0  0
   -1.8798   15.4585   -8.1118 C   0  0  0  0  0  0  0  0  0  0  0  0
   -1.6532   16.4178   -6.9199 C   0  0  0  0  0  0  0  0  0  0  0  0
   -2.6448   17.5837   -6.9912 C   0  0  0  0  0  0  0  0  0  0  0  0
   -1.3749   16.3978   -4.3886 N   0  0  0  0  0  0  0  0  0  0  0  0
   -2.5160   16.9163   -3.6563 C   0  0  0  0  0  0  0  0  0  0  0  0
    0.3143   17.9397   -3.8050 N   0  0  0  0  0  0  0  0  0  0  0  0
    2.4967   17.4016   -2.9471 N   0  0  0  0  0  0  0  0  0  0  0  0
    2.9051   15.0601   -2.8143 N   0  0  0  0  0  0  0  0  0  0  0  0
    1.5332   18.2448   -3.3307 C   0  0  0  0  0  0  0  0  0  0  0  0
    2.1088   16.1308   -3.1079 C   0  0  0  0  0  0  0  0  0  0  0  0
    2.2505   13.8983   -3.1158 C   0  0  0  0  0  0  0  0  0  0  0  0
    1.0040   14.2406   -3.5977 C   0  0  0  0  0  0  0  0  0  0  0  0
    0.8860   15.6664   -3.5833 C   0  0  0  0  0  0  0  0  0  0  0  0
   -0.0847   16.6442   -3.9343 C   0  0  0  0  0  0  0  0  0  0  0  0
    3.8416   15.1475   -2.4461 H   0  0  0  0  0  0  0  0  0  0  0  0
   -4.7910   13.5956   -6.4908 C   0  0  0  0  0  0  0  0  0  0  0  0
   -6.0517   14.2544   -5.9823 C   0  0  0  0  0  0  0  0  0  0  0  0
   -6.9449   13.5668   -5.1579 C   0  0  0  0  0  0  0  0  0  0  0  0
   -8.0902   14.1952   -4.6768 C   0  0  0  0  0  0  0  0  0  0  0  0
   -8.3711   15.5163   -5.0122 C   0  0  0  0  0  0  0  0  0  0  0  0
   -7.4908   16.2179   -5.8343 C   0  0  0  0  0  0  0  0  0  0  0  0
   -6.3351   15.5923   -6.3111 C   0  0  0  0  0  0  0  0  0  0  0  0
   -8.9400   13.5290   -3.8822 F   0  0  0  0  0  0  0  0  0  0  0  0
   -6.7013   12.2910   -4.8215 F   0  0  0  0  0  0  0  0  0  0  0  0
 12 15  1  0  0  0
 13 11  2  0  0  0
 14 12  1  0  0  0
 16 17  1  0  0  0
 17 14  2  0  0  0
 18  8  1  0  0  0
 18 10  2  0  0  0
  2  8  1  0  0  0
  2  3  1  0  0  0
  3  1  1  0  0  0
  4  1  1  0  0  0
  4  5  1  0  0  0
  5  6  1  0  0  0
  6  7  1  0  0  0
  6  2  1  0  0  0
 20  1  1  0  0  0
 20 21  1  0  0  0
 22 23  2  0  0  0
 22 28  1  0  0  0
 23 27  1  0  0  0
 24 25  2  0  0  0
 26 21  2  0  0  0
  9  8  1  0  0  0
 13 10  1  0  0  0
 14 11  1  0  0  0
 15 16  2  0  0  0
 17 18  1  0  0  0
 21 22  1  0  0  0
 23 24  1  0  0  0
 25 26  1  0  0  0
 12 19  1  0  0  0
M  END
> <minimizedAffinity>
-8.49300

$$$$
CHEMBL4167162


 29 32  0  0  0  0  0  0  0  0999 V2000
   -0.6919   16.5001   -4.3581 C   0  0  0  0  0  0  0  0  0  0  0  0
    0.3501   16.1646   -3.5010 C   0  0  0  0  0  0  0  0  0  0  0  0
    0.6553   14.8183   -3.2610 C   0  0  0  0  0  0  0  0  0  0  0  0
   -0.0572   13.7795   -3.8493 C   0  0  0  0  0  0  0  0  0  0  0  0
   -1.1127   14.0918   -4.7159 C   0  0  0  0  0  0  0  0  0  0  0  0
   -1.4028   15.4633   -4.9619 C   0  0  0  0  0  0  0  0  0  0  0  0
   -1.8057   12.9854   -5.2693 C   0  0  0  0  0  0  0  0  0  0  0  0
   -0.4137   11.5576   -4.1436 C   0  0  0  0  0  0  0  0  0  0  0  0
   -1.4417   11.7237   -4.9799 N   0  0  0  0  0  0  0  0  0  0  0  0
    0.2976   12.5268   -3.5608 N   0  0  0  0  0  0  0  0  0  0  0  0
   -0.2316   18.7445   -5.3713 C   0  0  0  0  0  0  0  0  0  0  0  0
   -0.9656   17.8668   -4.5827 N   0  0  0  0  0  0  0  0  0  0  0  0
    0.7449   18.4518   -6.0593 O   0  0  0  0  0  0  0  0  0  0  0  0
   -1.7954   18.2428   -4.1424 H   0  0  0  0  0  0  0  0  0  0  0  0
   -0.7170   20.1946   -5.2911 C   0  0  0  0  0  0  0  0  0  0  0  0
   -2.6430   21.6598   -5.7033 C   0  0  0  0  0  0  0  0  0  0  0  0
   -3.7523   21.7049   -6.7464 C   0  0  0  0  0  0  0  0  0  0  0  0
   -3.4495   20.5723   -7.7171 C   0  0  0  0  0  0  0  0  0  0  0  0
   -2.1243   19.9959   -7.2537 C   0  0  0  0  0  0  0  0  0  0  0  0
   -2.0816   20.3157   -5.8256 N   0  0  0  0  0  0  0  0  0  0  0  0
   -2.8861   13.2098   -6.1556 N   0  0  0  0  0  0  0  0  0  0  0  0
   -2.6018   13.4232   -7.0999 H   0  0  0  0  0  0  0  0  0  0  0  0
   -4.2741   13.3559   -5.9795 C   0  0  0  0  0  0  0  0  0  0  0  0
   -4.8128   14.6554   -6.0517 C   0  0  0  0  0  0  0  0  0  0  0  0
   -6.1823   14.8895   -5.8946 C   0  0  0  0  0  0  0  0  0  0  0  0
   -7.0387   13.8191   -5.6692 C   0  0  0  0  0  0  0  0  0  0  0  0
   -6.5346   12.5242   -5.6072 C   0  0  0  0  0  0  0  0  0  0  0  0
   -5.1612   12.2975   -5.7681 C   0  0  0  0  0  0  0  0  0  0  0  0
   -8.7239   14.0970   -5.4693 Cl  0  0  0  0  0  0  0  0  0  0  0  0
  1 12  1  0  0  0
  2  3  2  0  0  0
  4  5  2  0  0  0
  4 10  1  0  0  0
  5  7  1  0  0  0
  6  1  2  0  0  0
  7 21  1  0  0  0
  8  9  1  0  0  0
 24 25  2  0  0  0
 26 27  2  0  0  0
 26 29  1  0  0  0
 28 23  2  0  0  0
 15 11  1  0  0  0
 15 20  1  0  0  0
 16 20  1  0  0  0
 16 17  1  0  0  0
 17 18  1  0  0  0
 18 19  1  0  0  0
 19 20  1  0  0  0
 21 23  1  0  0  0
 12 11  1  0  0  0
  1  2  1  0  0  0
  3  4  1  0  0  0
  5  6  1  0  0  0
  7  9  2  0  0  0
  8 10  2  0  0  0
 23 24  1  0  0  0
 25 26  1  0  0  0
 27 28  1  0  0  0
 11 13  2  0  0  0
 21 22  1  0  0  0
 12 14  1  0  0  0
M  END
> <minimizedAffinity>
-9.04574

$$$$
CHEMBL4167162


 29 32  0  0  0  0  0  0  0  0999 V2000
   -1.7424   12.6538   -4.3440 C   0  0  0  0  0  0  0  0  0  0  0  0
   -0.7983   11.6378   -4.2457 C   0  0  0  0  0  0  0  0  0  0  0  0
    0.5255   11.9412   -3.9010 C   0  0  0  0  0  0  0  0  0  0  0  0
    0.9484   13.2423   -3.6536 C   0  0  0  0  0  0  0  0  0  0  0  0
    0.0162   14.2837   -3.7475 C   0  0  0  0  0  0  0  0  0  0  0  0
   -1.3281   13.9599   -4.0847 C   0  0  0  0  0  0  0  0  0  0  0  0
    0.5175   15.5863   -3.4971 C   0  0  0  0  0  0  0  0  0  0  0  0
    2.5956   14.7059   -3.1100 C   0  0  0  0  0  0  0  0  0  0  0  0
    1.8078   15.7824   -3.1731 N   0  0  0  0  0  0  0  0  0  0  0  0
    2.2285   13.4414   -3.3368 N   0  0  0  0  0  0  0  0  0  0  0  0
   -3.7109   12.5661   -5.8909 C   0  0  0  0  0  0  0  0  0  0  0  0
   -3.0684   12.3100   -4.6856 N   0  0  0  0  0  0  0  0  0  0  0  0
   -3.2008   13.0789   -6.8855 O   0  0  0  0  0  0  0  0  0  0  0  0
   -3.6007   11.8040   -3.9897 H   0  0  0  0  0  0  0  0  0  0  0  0
   -5.1947   12.1876   -5.8882 C   0  0  0  0  0  0  0  0  0  0  0  0
   -7.2716   13.4104   -5.4220 C   0  0  0  0  0  0  0  0  0  0  0  0
   -7.6867   14.8753   -5.4668 C   0  0  0  0  0  0  0  0  0  0  0  0
   -6.4299   15.6469   -5.8437 C   0  0  0  0  0  0  0  0  0  0  0  0
   -5.3254   14.6072   -5.8924 C   0  0  0  0  0  0  0  0  0  0  0  0
   -6.0300   13.3592   -6.1917 N   0  0  0  0  0  0  0  0  0  0  0  0
   -0.3560   16.6974   -3.5703 N   0  0  0  0  0  0  0  0  0  0  0  0
   -0.5398   17.1315   -2.6783 H   0  0  0  0  0  0  0  0  0  0  0  0
   -1.1541   17.2413   -4.5931 C   0  0  0  0  0  0  0  0  0  0  0  0
   -2.5502   17.2446   -4.4064 C   0  0  0  0  0  0  0  0  0  0  0  0
   -3.4160   17.7714   -5.3695 C   0  0  0  0  0  0  0  0  0  0  0  0
   -2.8935   18.3128   -6.5374 C   0  0  0  0  0  0  0  0  0  0  0  0
   -1.5177   18.3347   -6.7409 C   0  0  0  0  0  0  0  0  0  0  0  0
   -0.6564   17.8069   -5.7697 C   0  0  0  0  0  0  0  0  0  0  0  0
   -3.9502   18.9584   -7.7305 Cl  0  0  0  0  0  0  0  0  0  0  0  0
  1 12  1  0  0  0
  2  3  2  0  0  0
  4  5  2  0  0  0
  4 10  1  0  0  0
  5  7  1  0  0  0
  6  1  2  0  0  0
  7 21  1  0  0  0
  8  9  1  0  0  0
 24 25  2  0  0  0
 26 27  2  0  0  0
 26 29  1  0  0  0
 28 23  2  0  0  0
 15 11  1  0  0  0
 15 20  1  0  0  0
 16 20  1  0  0  0
 16 17  1  0  0  0
 17 18  1  0  0  0
 18 19  1  0  0  0
 19 20  1  0  0  0
 21 23  1  0  0  0
 12 11  1  0  0  0
  1  2  1  0  0  0
  3  4  1  0  0  0
  5  6  1  0  0  0
  7  9  2  0  0  0
  8 10  2  0  0  0
 23 24  1  0  0  0
 25 26  1  0  0  0
 27 28  1  0  0  0
 11 13  2  0  0  0
 21 22  1  0  0  0
 12 14  1  0  0  0
M  END
> <minimizedAffinity>
-9.01663

$$$$
CHEMBL4167162


 29 32  0  0  0  0  0  0  0  0999 V2000
    0.9831   16.5288   -3.4118 C   0  0  0  0  0  0  0  0  0  0  0  0
    2.1644   15.8686   -3.0926 C   0  0  0  0  0  0  0  0  0  0  0  0
    2.2265   14.4703   -3.1585 C   0  0  0  0  0  0  0  0  0  0  0  0
    1.1337   13.6957   -3.5307 C   0  0  0  0  0  0  0  0  0  0  0  0
   -0.0684   14.3374   -3.8558 C   0  0  0  0  0  0  0  0  0  0  0  0
   -0.1135   15.7588   -3.7984 C   0  0  0  0  0  0  0  0  0  0  0  0
   -1.1459   13.4873   -4.2122 C   0  0  0  0  0  0  0  0  0  0  0  0
    0.2053   11.6618   -3.9206 C   0  0  0  0  0  0  0  0  0  0  0  0
   -0.9935   12.1517   -4.2468 N   0  0  0  0  0  0  0  0  0  0  0  0
    1.2794   12.3704   -3.5613 N   0  0  0  0  0  0  0  0  0  0  0  0
    0.9416   18.8253   -4.4120 C   0  0  0  0  0  0  0  0  0  0  0  0
    0.9597   17.9387   -3.3421 N   0  0  0  0  0  0  0  0  0  0  0  0
    0.8751   18.5192   -5.6013 O   0  0  0  0  0  0  0  0  0  0  0  0
    0.9300   18.3479   -2.4172 H   0  0  0  0  0  0  0  0  0  0  0  0
    1.0610   20.2937   -3.9947 C   0  0  0  0  0  0  0  0  0  0  0  0
    3.1401   21.0613   -2.9391 C   0  0  0  0  0  0  0  0  0  0  0  0
    3.5153   21.5676   -1.5522 C   0  0  0  0  0  0  0  0  0  0  0  0
    2.2135   21.6098   -0.7645 C   0  0  0  0  0  0  0  0  0  0  0  0
    1.1337   21.2314   -1.7615 C   0  0  0  0  0  0  0  0  0  0  0  0
    1.8402   20.4191   -2.7538 N   0  0  0  0  0  0  0  0  0  0  0  0
   -2.3974   14.0519   -4.5558 N   0  0  0  0  0  0  0  0  0  0  0  0
   -3.1874   13.5640   -4.1612 H   0  0  0  0  0  0  0  0  0  0  0  0
   -2.7969   15.0556   -5.4569 C   0  0  0  0  0  0  0  0  0  0  0  0
   -3.5433   16.1366   -4.9485 C   0  0  0  0  0  0  0  0  0  0  0  0
   -3.9750   17.1798   -5.7731 C   0  0  0  0  0  0  0  0  0  0  0  0
   -3.6576   17.1601   -7.1255 C   0  0  0  0  0  0  0  0  0  0  0  0
   -2.9099   16.1114   -7.6508 C   0  0  0  0  0  0  0  0  0  0  0  0
   -2.4788   15.0707   -6.8172 C   0  0  0  0  0  0  0  0  0  0  0  0
   -4.1884   18.4358   -8.1492 Cl  0  0  0  0  0  0  0  0  0  0  0  0
  1 12  1  0  0  0
  2  3  2  0  0  0
  4  5  2  0  0  0
  4 10  1  0  0  0
  5  7  1  0  0  0
  6  1  2  0  0  0
  7 21  1  0  0  0
  8  9  1  0  0  0
 24 25  2  0  0  0
 26 27  2  0  0  0
 26 29  1  0  0  0
 28 23  2  0  0  0
 15 11  1  0  0  0
 15 20  1  0  0  0
 16 20  1  0  0  0
 16 17  1  0  0  0
 17 18  1  0  0  0
 18 19  1  0  0  0
 19 20  1  0  0  0
 21 23  1  0  0  0
 12 11  1  0  0  0
  1  2  1  0  0  0
  3  4  1  0  0  0
  5  6  1  0  0  0
  7  9  2  0  0  0
  8 10  2  0  0  0
 23 24  1  0  0  0
 25 26  1  0  0  0
 27 28  1  0  0  0
 11 13  2  0  0  0
 21 22  1  0  0  0
 12 14  1  0  0  0
M  END
> <minimizedAffinity>
-8.85481

$$$$
CHEMBL4167162


 29 32  0  0  0  0  0  0  0  0999 V2000
   -4.5393   14.1789   -6.0386 C   0  0  0  0  0  0  0  0  0  0  0  0
   -4.6765   12.7964   -5.9827 C   0  0  0  0  0  0  0  0  0  0  0  0
   -3.6486   12.0106   -5.4449 C   0  0  0  0  0  0  0  0  0  0  0  0
   -2.4686   12.5629   -4.9598 C   0  0  0  0  0  0  0  0  0  0  0  0
   -2.3058   13.9535   -5.0062 C   0  0  0  0  0  0  0  0  0  0  0  0
   -3.3635   14.7409   -5.5420 C   0  0  0  0  0  0  0  0  0  0  0  0
   -1.0736   14.4484   -4.5088 C   0  0  0  0  0  0  0  0  0  0  0  0
   -0.4197   12.3097   -4.0170 C   0  0  0  0  0  0  0  0  0  0  0  0
   -0.1421   13.6161   -4.0111 N   0  0  0  0  0  0  0  0  0  0  0  0
   -1.5402   11.7402   -4.4700 N   0  0  0  0  0  0  0  0  0  0  0  0
   -6.3272   15.9305   -5.9331 C   0  0  0  0  0  0  0  0  0  0  0  0
   -5.5987   14.9393   -6.5796 N   0  0  0  0  0  0  0  0  0  0  0  0
   -6.1194   16.3536   -4.7972 O   0  0  0  0  0  0  0  0  0  0  0  0
   -5.8390   14.7612   -7.5462 H   0  0  0  0  0  0  0  0  0  0  0  0
   -7.5029   16.4641   -6.7564 C   0  0  0  0  0  0  0  0  0  0  0  0
   -8.0998   17.5488   -8.8762 C   0  0  0  0  0  0  0  0  0  0  0  0
   -7.4471   18.6013   -9.7632 C   0  0  0  0  0  0  0  0  0  0  0  0
   -6.1832   19.0292   -9.0310 C   0  0  0  0  0  0  0  0  0  0  0  0
   -6.2201   18.2863   -7.7081 C   0  0  0  0  0  0  0  0  0  0  0  0
   -7.0248   17.0972   -7.9946 N   0  0  0  0  0  0  0  0  0  0  0  0
   -0.8254   15.8417   -4.5177 N   0  0  0  0  0  0  0  0  0  0  0  0
   -1.4223   16.3586   -5.1458 H   0  0  0  0  0  0  0  0  0  0  0  0
    0.1779   16.6543   -3.9592 C   0  0  0  0  0  0  0  0  0  0  0  0
    1.2922   16.0178   -3.3786 C   0  0  0  0  0  0  0  0  0  0  0  0
    2.3374   16.7496   -2.8070 C   0  0  0  0  0  0  0  0  0  0  0  0
    2.2859   18.1379   -2.8149 C   0  0  0  0  0  0  0  0  0  0  0  0
    1.2035   18.7919   -3.3941 C   0  0  0  0  0  0  0  0  0  0  0  0
    0.1611   18.0514   -3.9672 C   0  0  0  0  0  0  0  0  0  0  0  0
    3.5638   19.0471   -2.1097 Cl  0  0  0  0  0  0  0  0  0  0  0  0
  1 12  1  0  0  0
  2  3  2  0  0  0
  4  5  2  0  0  0
  4 10  1  0  0  0
  5  7  1  0  0  0
  6  1  2  0  0  0
  7 21  1  0  0  0
  8  9  1  0  0  0
 24 25  2  0  0  0
 26 27  2  0  0  0
 26 29  1  0  0  0
 28 23  2  0  0  0
 15 11  1  0  0  0
 15 20  1  0  0  0
 16 20  1  0  0  0
 16 17  1  0  0  0
 17 18  1  0  0  0
 18 19  1  0  0  0
 19 20  1  0  0  0
 21 23  1  0  0  0
 12 11  1  0  0  0
  1  2  1  0  0  0
  3  4  1  0  0  0
  5  6  1  0  0  0
  7  9  2  0  0  0
  8 10  2  0  0  0
 23 24  1  0  0  0
 25 26  1  0  0  0
 27 28  1  0  0  0
 11 13  2  0  0  0
 21 22  1  0  0  0
 12 14  1  0  0  0
M  END
> <minimizedAffinity>
-8.84569

$$$$
CHEMBL4167162


 29 32  0  0  0  0  0  0  0  0999 V2000
   -5.9088   16.6265   -5.9415 C   0  0  0  0  0  0  0  0  0  0  0  0
   -7.2345   16.2441   -5.7701 C   0  0  0  0  0  0  0  0  0  0  0  0
   -7.5698   14.8852   -5.7039 C   0  0  0  0  0  0  0  0  0  0  0  0
   -6.6160   13.8795   -5.8108 C   0  0  0  0  0  0  0  0  0  0  0  0
   -5.2734   14.2391   -5.9853 C   0  0  0  0  0  0  0  0  0  0  0  0
   -4.9449   15.6230   -6.0367 C   0  0  0  0  0  0  0  0  0  0  0  0
   -4.3558   13.1643   -6.1016 C   0  0  0  0  0  0  0  0  0  0  0  0
   -6.0774   11.6752   -5.8528 C   0  0  0  0  0  0  0  0  0  0  0  0
   -4.7704   11.8872   -6.0271 N   0  0  0  0  0  0  0  0  0  0  0  0
   -7.0239   12.6116   -5.7424 N   0  0  0  0  0  0  0  0  0  0  0  0
   -5.2610   18.7376   -7.1243 C   0  0  0  0  0  0  0  0  0  0  0  0
   -5.6071   18.0046   -5.9956 N   0  0  0  0  0  0  0  0  0  0  0  0
   -5.2269   18.3127   -8.2779 O   0  0  0  0  0  0  0  0  0  0  0  0
   -5.6712   18.5187   -5.1265 H   0  0  0  0  0  0  0  0  0  0  0  0
   -4.8579   20.1828   -6.8181 C   0  0  0  0  0  0  0  0  0  0  0  0
   -2.9116   21.6080   -6.3633 C   0  0  0  0  0  0  0  0  0  0  0  0
   -1.4376   21.3510   -6.0774 C   0  0  0  0  0  0  0  0  0  0  0  0
   -1.2847   19.8371   -6.0387 C   0  0  0  0  0  0  0  0  0  0  0  0
   -2.6923   19.2918   -6.1951 C   0  0  0  0  0  0  0  0  0  0  0  0
   -3.4003   20.3482   -6.9206 N   0  0  0  0  0  0  0  0  0  0  0  0
   -2.9786   13.4373   -6.2800 N   0  0  0  0  0  0  0  0  0  0  0  0
   -2.6806   13.4199   -7.2438 H   0  0  0  0  0  0  0  0  0  0  0  0
   -1.8923   13.5754   -5.3970 C   0  0  0  0  0  0  0  0  0  0  0  0
   -1.3981   14.8731   -5.1604 C   0  0  0  0  0  0  0  0  0  0  0  0
   -0.3257   15.1008   -4.2927 C   0  0  0  0  0  0  0  0  0  0  0  0
    0.2664   14.0273   -3.6392 C   0  0  0  0  0  0  0  0  0  0  0  0
   -0.2109   12.7371   -3.8443 C   0  0  0  0  0  0  0  0  0  0  0  0
   -1.2878   12.5173   -4.7137 C   0  0  0  0  0  0  0  0  0  0  0  0
    1.5894   14.2962   -2.5740 Cl  0  0  0  0  0  0  0  0  0  0  0  0
  1 12  1  0  0  0
  2  3  2  0  0  0
  4  5  2  0  0  0
  4 10  1  0  0  0
  5  7  1  0  0  0
  6  1  2  0  0  0
  7 21  1  0  0  0
  8  9  1  0  0  0
 24 25  2  0  0  0
 26 27  2  0  0  0
 26 29  1  0  0  0
 28 23  2  0  0  0
 15 11  1  0  0  0
 15 20  1  0  0  0
 16 20  1  0  0  0
 16 17  1  0  0  0
 17 18  1  0  0  0
 18 19  1  0  0  0
 19 20  1  0  0  0
 21 23  1  0  0  0
 12 11  1  0  0  0
  1  2  1  0  0  0
  3  4  1  0  0  0
  5  6  1  0  0  0
  7  9  2  0  0  0
  8 10  2  0  0  0
 23 24  1  0  0  0
 25 26  1  0  0  0
 27 28  1  0  0  0
 11 13  2  0  0  0
 21 22  1  0  0  0
 12 14  1  0  0  0
M  END
> <minimizedAffinity>
-8.83272

$$$$
CHEMBL4167162


 29 32  0  0  0  0  0  0  0  0999 V2000
   -3.3510   18.6703   -6.1247 C   0  0  0  0  0  0  0  0  0  0  0  0
   -3.4060   19.6214   -7.1373 C   0  0  0  0  0  0  0  0  0  0  0  0
   -4.4884   19.6371   -8.0271 C   0  0  0  0  0  0  0  0  0  0  0  0
   -5.5298   18.7198   -7.9450 C   0  0  0  0  0  0  0  0  0  0  0  0
   -5.4967   17.7506   -6.9341 C   0  0  0  0  0  0  0  0  0  0  0  0
   -4.3986   17.7548   -6.0285 C   0  0  0  0  0  0  0  0  0  0  0  0
   -6.5820   16.8382   -6.9170 C   0  0  0  0  0  0  0  0  0  0  0  0
   -7.4977   17.9024   -8.7260 C   0  0  0  0  0  0  0  0  0  0  0  0
   -7.5790   16.9294   -7.8147 N   0  0  0  0  0  0  0  0  0  0  0  0
   -6.5179   18.8039   -8.8367 N   0  0  0  0  0  0  0  0  0  0  0  0
   -0.9655   18.2258   -5.5018 C   0  0  0  0  0  0  0  0  0  0  0  0
   -2.2494   18.6896   -5.2419 N   0  0  0  0  0  0  0  0  0  0  0  0
   -0.5628   17.7811   -6.5755 O   0  0  0  0  0  0  0  0  0  0  0  0
   -2.4029   19.1051   -4.3322 H   0  0  0  0  0  0  0  0  0  0  0  0
   -0.0401   18.2644   -4.2825 C   0  0  0  0  0  0  0  0  0  0  0  0
    1.8635   17.1124   -3.2454 C   0  0  0  0  0  0  0  0  0  0  0  0
    2.1870   15.6616   -2.9124 C   0  0  0  0  0  0  0  0  0  0  0  0
    0.9534   14.8639   -3.3108 C   0  0  0  0  0  0  0  0  0  0  0  0
   -0.0637   15.9000   -3.7527 C   0  0  0  0  0  0  0  0  0  0  0  0
    0.7550   17.0304   -4.1948 N   0  0  0  0  0  0  0  0  0  0  0  0
   -6.6287   15.8261   -5.9288 N   0  0  0  0  0  0  0  0  0  0  0  0
   -6.9333   16.1528   -5.0241 H   0  0  0  0  0  0  0  0  0  0  0  0
   -6.1943   14.4889   -5.8851 C   0  0  0  0  0  0  0  0  0  0  0  0
   -4.8359   14.2297   -6.1527 C   0  0  0  0  0  0  0  0  0  0  0  0
   -4.3193   12.9308   -6.1242 C   0  0  0  0  0  0  0  0  0  0  0  0
   -5.1583   11.8666   -5.8182 C   0  0  0  0  0  0  0  0  0  0  0  0
   -6.5009   12.0962   -5.5363 C   0  0  0  0  0  0  0  0  0  0  0  0
   -7.0105   13.4012   -5.5645 C   0  0  0  0  0  0  0  0  0  0  0  0
   -4.5338   10.2647   -5.7857 Cl  0  0  0  0  0  0  0  0  0  0  0  0
  1 12  1  0  0  0
  2  3  2  0  0  0
  4  5  2  0  0  0
  4 10  1  0  0  0
  5  7  1  0  0  0
  6  1  2  0  0  0
  7 21  1  0  0  0
  8  9  1  0  0  0
 24 25  2  0  0  0
 26 27  2  0  0  0
 26 29  1  0  0  0
 28 23  2  0  0  0
 15 11  1  0  0  0
 15 20  1  0  0  0
 16 20  1  0  0  0
 16 17  1  0  0  0
 17 18  1  0  0  0
 18 19  1  0  0  0
 19 20  1  0  0  0
 21 23  1  0  0  0
 12 11  1  0  0  0
  1  2  1  0  0  0
  3  4  1  0  0  0
  5  6  1  0  0  0
  7  9  2  0  0  0
  8 10  2  0  0  0
 23 24  1  0  0  0
 25 26  1  0  0  0
 27 28  1  0  0  0
 11 13  2  0  0  0
 21 22  1  0  0  0
 12 14  1  0  0  0
M  END
> <minimizedAffinity>
-8.70751

$$$$
CHEMBL4167162


 29 32  0  0  0  0  0  0  0  0999 V2000
   -2.0906   14.1835   -4.7911 C   0  0  0  0  0  0  0  0  0  0  0  0
   -1.8555   12.8262   -4.6026 C   0  0  0  0  0  0  0  0  0  0  0  0
   -0.6307   12.3926   -4.0779 C   0  0  0  0  0  0  0  0  0  0  0  0
    0.3852   13.2778   -3.7359 C   0  0  0  0  0  0  0  0  0  0  0  0
    0.1731   14.6506   -3.9178 C   0  0  0  0  0  0  0  0  0  0  0  0
   -1.0807   15.0782   -4.4382 C   0  0  0  0  0  0  0  0  0  0  0  0
    1.2551   15.4954   -3.5624 C   0  0  0  0  0  0  0  0  0  0  0  0
    2.4738   13.6612   -2.9349 C   0  0  0  0  0  0  0  0  0  0  0  0
    2.3972   14.9881   -3.0661 N   0  0  0  0  0  0  0  0  0  0  0  0
    1.5214   12.7781   -3.2481 N   0  0  0  0  0  0  0  0  0  0  0  0
   -3.6567   14.7818   -6.6526 C   0  0  0  0  0  0  0  0  0  0  0  0
   -3.3392   14.5844   -5.3142 N   0  0  0  0  0  0  0  0  0  0  0  0
   -2.9125   14.5723   -7.6090 O   0  0  0  0  0  0  0  0  0  0  0  0
   -4.0887   14.7205   -4.6483 H   0  0  0  0  0  0  0  0  0  0  0  0
   -5.0606   15.3523   -6.8728 C   0  0  0  0  0  0  0  0  0  0  0  0
   -6.9889   16.0765   -5.5374 C   0  0  0  0  0  0  0  0  0  0  0  0
   -8.0162   15.3670   -4.6647 C   0  0  0  0  0  0  0  0  0  0  0  0
   -7.6959   13.8832   -4.7772 C   0  0  0  0  0  0  0  0  0  0  0  0
   -6.5708   13.7958   -5.7919 C   0  0  0  0  0  0  0  0  0  0  0  0
   -5.9130   15.1006   -5.7012 N   0  0  0  0  0  0  0  0  0  0  0  0
    1.1265   16.8967   -3.7138 N   0  0  0  0  0  0  0  0  0  0  0  0
    0.5248   17.1714   -4.4757 H   0  0  0  0  0  0  0  0  0  0  0  0
    1.7765   18.0012   -3.1338 C   0  0  0  0  0  0  0  0  0  0  0  0
    1.1071   19.2404   -3.1484 C   0  0  0  0  0  0  0  0  0  0  0  0
    1.6781   20.3872   -2.5884 C   0  0  0  0  0  0  0  0  0  0  0  0
    2.9318   20.3083   -1.9952 C   0  0  0  0  0  0  0  0  0  0  0  0
    3.6087   19.0938   -1.9548 C   0  0  0  0  0  0  0  0  0  0  0  0
    3.0286   17.9484   -2.5161 C   0  0  0  0  0  0  0  0  0  0  0  0
    3.6451   21.7142   -1.3083 Cl  0  0  0  0  0  0  0  0  0  0  0  0
  1 12  1  0  0  0
  2  3  2  0  0  0
  4  5  2  0  0  0
  4 10  1  0  0  0
  5  7  1  0  0  0
  6  1  2  0  0  0
  7 21  1  0  0  0
  8  9  1  0  0  0
 24 25  2  0  0  0
 26 27  2  0  0  0
 26 29  1  0  0  0
 28 23  2  0  0  0
 15 11  1  0  0  0
 15 20  1  0  0  0
 16 20  1  0  0  0
 16 17  1  0  0  0
 17 18  1  0  0  0
 18 19  1  0  0  0
 19 20  1  0  0  0
 21 23  1  0  0  0
 12 11  1  0  0  0
  1  2  1  0  0  0
  3  4  1  0  0  0
  5  6  1  0  0  0
  7  9  2  0  0  0
  8 10  2  0  0  0
 23 24  1  0  0  0
 25 26  1  0  0  0
 27 28  1  0  0  0
 11 13  2  0  0  0
 21 22  1  0  0  0
 12 14  1  0  0  0
M  END
> <minimizedAffinity>
-8.65534

$$$$
CHEMBL4167162


 29 32  0  0  0  0  0  0  0  0999 V2000
    0.8400   16.8390   -3.5661 C   0  0  0  0  0  0  0  0  0  0  0  0
    2.0669   16.3326   -3.1521 C   0  0  0  0  0  0  0  0  0  0  0  0
    2.2742   14.9476   -3.1045 C   0  0  0  0  0  0  0  0  0  0  0  0
    1.2840   14.0366   -3.4542 C   0  0  0  0  0  0  0  0  0  0  0  0
    0.0386   14.5220   -3.8734 C   0  0  0  0  0  0  0  0  0  0  0  0
   -0.1539   15.9311   -3.9306 C   0  0  0  0  0  0  0  0  0  0  0  0
   -0.9295   13.5390   -4.2009 C   0  0  0  0  0  0  0  0  0  0  0  0
    0.5864   11.8928   -3.7155 C   0  0  0  0  0  0  0  0  0  0  0  0
   -0.6402   12.2280   -4.1237 N   0  0  0  0  0  0  0  0  0  0  0  0
    1.5654   12.7354   -3.3742 N   0  0  0  0  0  0  0  0  0  0  0  0
    0.7452   19.0537   -4.7332 C   0  0  0  0  0  0  0  0  0  0  0  0
    0.6697   18.2398   -3.6093 N   0  0  0  0  0  0  0  0  0  0  0  0
    0.9078   18.6716   -5.8908 O   0  0  0  0  0  0  0  0  0  0  0  0
    0.4469   18.6981   -2.7352 H   0  0  0  0  0  0  0  0  0  0  0  0
    0.6515   20.5488   -4.4160 C   0  0  0  0  0  0  0  0  0  0  0  0
   -1.4189   20.4746   -5.7329 C   0  0  0  0  0  0  0  0  0  0  0  0
   -2.3865   21.5216   -6.2696 C   0  0  0  0  0  0  0  0  0  0  0  0
   -1.8695   22.8589   -5.7586 C   0  0  0  0  0  0  0  0  0  0  0  0
   -0.6936   22.5140   -4.8633 C   0  0  0  0  0  0  0  0  0  0  0  0
   -0.2177   21.2318   -5.3858 N   0  0  0  0  0  0  0  0  0  0  0  0
   -2.2153   13.9414   -4.6342 N   0  0  0  0  0  0  0  0  0  0  0  0
   -2.9537   13.3099   -4.3625 H   0  0  0  0  0  0  0  0  0  0  0  0
   -2.6788   14.9506   -5.4977 C   0  0  0  0  0  0  0  0  0  0  0  0
   -3.5090   15.9505   -4.9546 C   0  0  0  0  0  0  0  0  0  0  0  0
   -4.0083   16.9935   -5.7405 C   0  0  0  0  0  0  0  0  0  0  0  0
   -3.6759   17.0555   -7.0879 C   0  0  0  0  0  0  0  0  0  0  0  0
   -2.8465   16.0886   -7.6465 C   0  0  0  0  0  0  0  0  0  0  0  0
   -2.3481   15.0478   -6.8516 C   0  0  0  0  0  0  0  0  0  0  0  0
   -4.2892   18.3314   -8.0643 Cl  0  0  0  0  0  0  0  0  0  0  0  0
  1 12  1  0  0  0
  2  3  2  0  0  0
  4  5  2  0  0  0
  4 10  1  0  0  0
  5  7  1  0  0  0
  6  1  2  0  0  0
  7 21  1  0  0  0
  8  9  1  0  0  0
 24 25  2  0  0  0
 26 27  2  0  0  0
 26 29  1  0  0  0
 28 23  2  0  0  0
 15 11  1  0  0  0
 15 20  1  0  0  0
 16 20  1  0  0  0
 16 17  1  0  0  0
 17 18  1  0  0  0
 18 19  1  0  0  0
 19 20  1  0  0  0
 21 23  1  0  0  0
 12 11  1  0  0  0
  1  2  1  0  0  0
  3  4  1  0  0  0
  5  6  1  0  0  0
  7  9  2  0  0  0
  8 10  2  0  0  0
 23 24  1  0  0  0
 25 26  1  0  0  0
 27 28  1  0  0  0
 11 13  2  0  0  0
 21 22  1  0  0  0
 12 14  1  0  0  0
M  END
> <minimizedAffinity>
-8.56426

$$$$
CHEMBL4167162


 29 32  0  0  0  0  0  0  0  0999 V2000
   -2.6072   17.7140   -6.4725 C   0  0  0  0  0  0  0  0  0  0  0  0
   -2.6272   18.8641   -7.2535 C   0  0  0  0  0  0  0  0  0  0  0  0
   -1.7292   19.9069   -6.9899 C   0  0  0  0  0  0  0  0  0  0  0  0
   -0.8029   19.8447   -5.9551 C   0  0  0  0  0  0  0  0  0  0  0  0
   -0.7639   18.6969   -5.1530 C   0  0  0  0  0  0  0  0  0  0  0  0
   -1.6720   17.6394   -5.4407 C   0  0  0  0  0  0  0  0  0  0  0  0
    0.1942   18.7058   -4.1076 C   0  0  0  0  0  0  0  0  0  0  0  0
    0.8837   20.7880   -4.7650 C   0  0  0  0  0  0  0  0  0  0  0  0
    1.0160   19.7550   -3.9289 N   0  0  0  0  0  0  0  0  0  0  0  0
    0.0106   20.8855   -5.7715 N   0  0  0  0  0  0  0  0  0  0  0  0
   -4.5617   16.2299   -5.9690 C   0  0  0  0  0  0  0  0  0  0  0  0
   -3.5211   16.6805   -6.7723 N   0  0  0  0  0  0  0  0  0  0  0  0
   -4.8971   16.7089   -4.8870 O   0  0  0  0  0  0  0  0  0  0  0  0
   -3.4240   16.2355   -7.6758 H   0  0  0  0  0  0  0  0  0  0  0  0
   -5.2798   14.9984   -6.5278 C   0  0  0  0  0  0  0  0  0  0  0  0
   -5.9840   12.7679   -5.7825 C   0  0  0  0  0  0  0  0  0  0  0  0
   -5.2558   11.4880   -5.3927 C   0  0  0  0  0  0  0  0  0  0  0  0
   -3.7768   11.7741   -5.6113 C   0  0  0  0  0  0  0  0  0  0  0  0
   -3.7269   13.1641   -6.2185 C   0  0  0  0  0  0  0  0  0  0  0  0
   -4.9528   13.8029   -5.7362 N   0  0  0  0  0  0  0  0  0  0  0  0
    0.3021   17.5859   -3.2490 N   0  0  0  0  0  0  0  0  0  0  0  0
    0.0117   17.7694   -2.3004 H   0  0  0  0  0  0  0  0  0  0  0  0
    0.8736   16.3077   -3.3850 C   0  0  0  0  0  0  0  0  0  0  0  0
    0.0148   15.1931   -3.3203 C   0  0  0  0  0  0  0  0  0  0  0  0
    0.4985   13.8879   -3.4522 C   0  0  0  0  0  0  0  0  0  0  0  0
    1.8561   13.6784   -3.6596 C   0  0  0  0  0  0  0  0  0  0  0  0
    2.7242   14.7621   -3.7414 C   0  0  0  0  0  0  0  0  0  0  0  0
    2.2313   16.0673   -3.6107 C   0  0  0  0  0  0  0  0  0  0  0  0
    2.4618   12.0767   -3.8177 Cl  0  0  0  0  0  0  0  0  0  0  0  0
  1 12  1  0  0  0
  2  3  2  0  0  0
  4  5  2  0  0  0
  4 10  1  0  0  0
  5  7  1  0  0  0
  6  1  2  0  0  0
  7 21  1  0  0  0
  8  9  1  0  0  0
 24 25  2  0  0  0
 26 27  2  0  0  0
 26 29  1  0  0  0
 28 23  2  0  0  0
 15 11  1  0  0  0
 15 20  1  0  0  0
 16 20  1  0  0  0
 16 17  1  0  0  0
 17 18  1  0  0  0
 18 19  1  0  0  0
 19 20  1  0  0  0
 21 23  1  0  0  0
 12 11  1  0  0  0
  1  2  1  0  0  0
  3  4  1  0  0  0
  5  6  1  0  0  0
  7  9  2  0  0  0
  8 10  2  0  0  0
 23 24  1  0  0  0
 25 26  1  0  0  0
 27 28  1  0  0  0
 11 13  2  0  0  0
 21 22  1  0  0  0
 12 14  1  0  0  0
M  END
> <minimizedAffinity>
-8.56363

$$$$
CHEMBL4649816


 25 28  0  0  0  0  0  0  0  0999 V2000
   -1.9849   17.8404   -6.8646 C   0  0  0  0  0  0  0  0  0  0  0  0
   -3.0749   17.0709   -6.1177 C   0  0  0  0  0  0  0  0  0  0  0  0
   -2.4652   16.6423   -4.7788 C   0  0  0  0  0  0  0  0  0  0  0  0
   -0.8096   17.8656   -5.9228 C   0  0  0  0  0  0  0  0  0  0  0  0
   -1.1241   17.1649   -4.7781 N   0  0  0  0  0  0  0  0  0  0  0  0
    0.2630   18.3981   -6.1697 O   0  0  0  0  0  0  0  0  0  0  0  0
   -4.3381   17.8038   -5.9952 N   0  0  0  0  0  0  0  0  0  0  0  0
   -4.2940   18.8087   -5.9400 H   0  0  0  0  0  0  0  0  0  0  0  0
   -5.5642   17.1800   -5.9866 C   0  0  0  0  0  0  0  0  0  0  0  0
   -7.1876   15.8881   -4.9271 C   0  0  0  0  0  0  0  0  0  0  0  0
   -7.6393   16.5206   -7.0124 C   0  0  0  0  0  0  0  0  0  0  0  0
   -6.4259   17.1848   -7.0698 C   0  0  0  0  0  0  0  0  0  0  0  0
   -7.5532   17.3725   -8.9614 C   0  0  0  0  0  0  0  0  0  0  0  0
   -5.9898   16.5083   -4.9007 N   0  0  0  0  0  0  0  0  0  0  0  0
   -8.0663   15.8438   -5.9338 N   0  0  0  0  0  0  0  0  0  0  0  0
   -6.3934   17.7226   -8.3270 N   0  0  0  0  0  0  0  0  0  0  0  0
   -8.3276   16.6434   -8.1909 N   0  0  0  0  0  0  0  0  0  0  0  0
   -5.6487   18.2779   -8.7203 H   0  0  0  0  0  0  0  0  0  0  0  0
   -0.2658   17.0993   -3.6124 C   0  0  0  0  0  0  0  0  0  0  0  0
    0.5303   15.8166   -3.5709 C   0  0  0  0  0  0  0  0  0  0  0  0
    1.9303   15.8530   -3.6534 C   0  0  0  0  0  0  0  0  0  0  0  0
    2.6775   14.6767   -3.5755 C   0  0  0  0  0  0  0  0  0  0  0  0
    2.0346   13.4532   -3.3981 C   0  0  0  0  0  0  0  0  0  0  0  0
    0.6448   13.4045   -3.3046 C   0  0  0  0  0  0  0  0  0  0  0  0
   -0.1045   14.5791   -3.3943 C   0  0  0  0  0  0  0  0  0  0  0  0
  1  2  1  0  0  0
  1  4  1  0  0  0
  2  3  1  0  0  0
  2  7  1  0  0  0
  3  5  1  0  0  0
 19  5  1  0  0  0
 19 20  1  0  0  0
 21 22  2  0  0  0
 23 24  2  0  0  0
 25 20  2  0  0  0
 10 14  2  0  0  0
 11 15  2  0  0  0
 11 17  1  0  0  0
 12 16  1  0  0  0
 12  9  2  0  0  0
  5  4  1  0  0  0
  7  9  1  0  0  0
 16 13  1  0  0  0
  4  6  2  0  0  0
 20 21  1  0  0  0
 22 23  1  0  0  0
 24 25  1  0  0  0
  9 14  1  0  0  0
 10 15  1  0  0  0
 11 12  1  0  0  0
 13 17  2  0  0  0
  7  8  1  0  0  0
 16 18  1  0  0  0
M  END
> <minimizedAffinity>
-8.84965

$$$$
CHEMBL4649816


 25 28  0  0  0  0  0  0  0  0999 V2000
   -2.2318   15.7370   -7.3069 C   0  0  0  0  0  0  0  0  0  0  0  0
   -2.5493   17.1153   -6.7260 C   0  0  0  0  0  0  0  0  0  0  0  0
   -2.3884   16.9947   -5.2069 C   0  0  0  0  0  0  0  0  0  0  0  0
   -1.8611   14.8884   -6.1190 C   0  0  0  0  0  0  0  0  0  0  0  0
   -1.9835   15.6345   -4.9664 N   0  0  0  0  0  0  0  0  0  0  0  0
   -1.5407   13.7102   -6.1839 O   0  0  0  0  0  0  0  0  0  0  0  0
   -1.7739   18.2037   -7.3274 N   0  0  0  0  0  0  0  0  0  0  0  0
   -1.0399   17.9565   -7.9717 H   0  0  0  0  0  0  0  0  0  0  0  0
   -2.0306   19.5311   -7.0730 C   0  0  0  0  0  0  0  0  0  0  0  0
   -1.5412   21.5300   -5.9814 C   0  0  0  0  0  0  0  0  0  0  0  0
   -3.3104   21.5531   -7.3312 C   0  0  0  0  0  0  0  0  0  0  0  0
   -3.0866   20.2224   -7.6412 C   0  0  0  0  0  0  0  0  0  0  0  0
   -4.8535   21.0244   -8.6991 C   0  0  0  0  0  0  0  0  0  0  0  0
   -1.2541   20.2353   -6.2288 N   0  0  0  0  0  0  0  0  0  0  0  0
   -2.5426   22.2589   -6.4851 N   0  0  0  0  0  0  0  0  0  0  0  0
   -4.0869   19.9064   -8.5188 N   0  0  0  0  0  0  0  0  0  0  0  0
   -4.4086   22.0378   -7.9921 N   0  0  0  0  0  0  0  0  0  0  0  0
   -4.2367   19.0098   -8.9564 H   0  0  0  0  0  0  0  0  0  0  0  0
   -1.5824   15.1640   -3.6558 C   0  0  0  0  0  0  0  0  0  0  0  0
   -0.0802   15.0872   -3.5207 C   0  0  0  0  0  0  0  0  0  0  0  0
    0.6857   16.2622   -3.4897 C   0  0  0  0  0  0  0  0  0  0  0  0
    2.0704   16.2037   -3.3247 C   0  0  0  0  0  0  0  0  0  0  0  0
    2.7026   14.9712   -3.1727 C   0  0  0  0  0  0  0  0  0  0  0  0
    1.9520   13.7970   -3.1917 C   0  0  0  0  0  0  0  0  0  0  0  0
    0.5682   13.8534   -3.3686 C   0  0  0  0  0  0  0  0  0  0  0  0
  1  2  1  0  0  0
  1  4  1  0  0  0
  2  3  1  0  0  0
  2  7  1  0  0  0
  3  5  1  0  0  0
 19  5  1  0  0  0
 19 20  1  0  0  0
 21 22  2  0  0  0
 23 24  2  0  0  0
 25 20  2  0  0  0
 10 14  2  0  0  0
 11 15  2  0  0  0
 11 17  1  0  0  0
 12 16  1  0  0  0
 12  9  2  0  0  0
  5  4  1  0  0  0
  7  9  1  0  0  0
 16 13  1  0  0  0
  4  6  2  0  0  0
 20 21  1  0  0  0
 22 23  1  0  0  0
 24 25  1  0  0  0
  9 14  1  0  0  0
 10 15  1  0  0  0
 11 12  1  0  0  0
 13 17  2  0  0  0
  7  8  1  0  0  0
 16 18  1  0  0  0
M  END
> <minimizedAffinity>
-8.64361

$$$$
CHEMBL4649816


 25 28  0  0  0  0  0  0  0  0999 V2000
   -2.4741   16.8514   -7.0324 C   0  0  0  0  0  0  0  0  0  0  0  0
   -3.0808   15.4792   -6.7375 C   0  0  0  0  0  0  0  0  0  0  0  0
   -2.5777   15.0705   -5.3490 C   0  0  0  0  0  0  0  0  0  0  0  0
   -1.6843   17.2025   -5.7989 C   0  0  0  0  0  0  0  0  0  0  0  0
   -1.7594   16.1643   -4.8952 N   0  0  0  0  0  0  0  0  0  0  0  0
   -1.0494   18.2377   -5.6557 O   0  0  0  0  0  0  0  0  0  0  0  0
   -4.5379   15.4324   -6.8861 N   0  0  0  0  0  0  0  0  0  0  0  0
   -4.9810   16.1750   -7.4030 H   0  0  0  0  0  0  0  0  0  0  0  0
   -5.3064   14.4091   -6.3811 C   0  0  0  0  0  0  0  0  0  0  0  0
   -5.7364   12.1397   -6.0782 C   0  0  0  0  0  0  0  0  0  0  0  0
   -7.2232   13.5481   -5.2072 C   0  0  0  0  0  0  0  0  0  0  0  0
   -6.4775   14.6175   -5.6733 C   0  0  0  0  0  0  0  0  0  0  0  0
   -8.2903   15.2876   -4.6012 C   0  0  0  0  0  0  0  0  0  0  0  0
   -4.9531   13.1237   -6.5663 N   0  0  0  0  0  0  0  0  0  0  0  0
   -6.8786   12.2636   -5.3943 N   0  0  0  0  0  0  0  0  0  0  0  0
   -7.1804   15.7204   -5.2729 N   0  0  0  0  0  0  0  0  0  0  0  0
   -8.3443   13.9765   -4.5459 N   0  0  0  0  0  0  0  0  0  0  0  0
   -6.9292   16.6828   -5.4416 H   0  0  0  0  0  0  0  0  0  0  0  0
   -1.2194   16.2248   -3.5519 C   0  0  0  0  0  0  0  0  0  0  0  0
    0.1076   15.5116   -3.4460 C   0  0  0  0  0  0  0  0  0  0  0  0
    1.2979   16.2479   -3.3501 C   0  0  0  0  0  0  0  0  0  0  0  0
    2.5258   15.5989   -3.2113 C   0  0  0  0  0  0  0  0  0  0  0  0
    2.5757   14.2077   -3.1506 C   0  0  0  0  0  0  0  0  0  0  0  0
    1.3994   13.4648   -3.2347 C   0  0  0  0  0  0  0  0  0  0  0  0
    0.1717   14.1123   -3.3855 C   0  0  0  0  0  0  0  0  0  0  0  0
  1  2  1  0  0  0
  1  4  1  0  0  0
  2  3  1  0  0  0
  2  7  1  0  0  0
  3  5  1  0  0  0
 19  5  1  0  0  0
 19 20  1  0  0  0
 21 22  2  0  0  0
 23 24  2  0  0  0
 25 20  2  0  0  0
 10 14  2  0  0  0
 11 15  2  0  0  0
 11 17  1  0  0  0
 12 16  1  0  0  0
 12  9  2  0  0  0
  5  4  1  0  0  0
  7  9  1  0  0  0
 16 13  1  0  0  0
  4  6  2  0  0  0
 20 21  1  0  0  0
 22 23  1  0  0  0
 24 25  1  0  0  0
  9 14  1  0  0  0
 10 15  1  0  0  0
 11 12  1  0  0  0
 13 17  2  0  0  0
  7  8  1  0  0  0
 16 18  1  0  0  0
M  END
> <minimizedAffinity>
-8.64308

$$$$
CHEMBL4649816


 25 28  0  0  0  0  0  0  0  0999 V2000
   -1.9182   16.8476   -7.3084 C   0  0  0  0  0  0  0  0  0  0  0  0
   -2.4061   15.3996   -7.3666 C   0  0  0  0  0  0  0  0  0  0  0  0
   -2.1541   14.7996   -5.9793 C   0  0  0  0  0  0  0  0  0  0  0  0
   -1.4456   17.0438   -5.8918 C   0  0  0  0  0  0  0  0  0  0  0  0
   -1.5815   15.8621   -5.1952 N   0  0  0  0  0  0  0  0  0  0  0  0
   -0.9805   18.0874   -5.4563 O   0  0  0  0  0  0  0  0  0  0  0  0
   -3.7857   15.2588   -7.8403 N   0  0  0  0  0  0  0  0  0  0  0  0
   -3.9270   14.9582   -8.7914 H   0  0  0  0  0  0  0  0  0  0  0  0
   -4.8775   15.4871   -7.0350 C   0  0  0  0  0  0  0  0  0  0  0  0
   -6.3639   16.9355   -5.9769 C   0  0  0  0  0  0  0  0  0  0  0  0
   -6.6732   14.7632   -5.6050 C   0  0  0  0  0  0  0  0  0  0  0  0
   -5.5952   14.4734   -6.4240 C   0  0  0  0  0  0  0  0  0  0  0  0
   -6.5105   12.6406   -5.5946 C   0  0  0  0  0  0  0  0  0  0  0  0
   -5.3033   16.7396   -6.7872 N   0  0  0  0  0  0  0  0  0  0  0  0
   -7.0986   16.0112   -5.3495 N   0  0  0  0  0  0  0  0  0  0  0  0
   -5.5107   13.1084   -6.4021 N   0  0  0  0  0  0  0  0  0  0  0  0
   -7.2307   13.6194   -5.0965 N   0  0  0  0  0  0  0  0  0  0  0  0
   -4.8332   12.5438   -6.8918 H   0  0  0  0  0  0  0  0  0  0  0  0
   -1.3398   15.7335   -3.7721 C   0  0  0  0  0  0  0  0  0  0  0  0
    0.0488   15.2157   -3.4816 C   0  0  0  0  0  0  0  0  0  0  0  0
    0.2920   13.8346   -3.4412 C   0  0  0  0  0  0  0  0  0  0  0  0
    1.5795   13.3461   -3.2135 C   0  0  0  0  0  0  0  0  0  0  0  0
    2.6406   14.2325   -3.0399 C   0  0  0  0  0  0  0  0  0  0  0  0
    2.4140   15.6070   -3.0876 C   0  0  0  0  0  0  0  0  0  0  0  0
    1.1247   16.0970   -3.3035 C   0  0  0  0  0  0  0  0  0  0  0  0
  1  2  1  0  0  0
  1  4  1  0  0  0
  2  3  1  0  0  0
  2  7  1  0  0  0
  3  5  1  0  0  0
 19  5  1  0  0  0
 19 20  1  0  0  0
 21 22  2  0  0  0
 23 24  2  0  0  0
 25 20  2  0  0  0
 10 14  2  0  0  0
 11 15  2  0  0  0
 11 17  1  0  0  0
 12 16  1  0  0  0
 12  9  2  0  0  0
  5  4  1  0  0  0
  7  9  1  0  0  0
 16 13  1  0  0  0
  4  6  2  0  0  0
 20 21  1  0  0  0
 22 23  1  0  0  0
 24 25  1  0  0  0
  9 14  1  0  0  0
 10 15  1  0  0  0
 11 12  1  0  0  0
 13 17  2  0  0  0
  7  8  1  0  0  0
 16 18  1  0  0  0
M  END
> <minimizedAffinity>
-8.63294

$$$$
CHEMBL4649816


 25 28  0  0  0  0  0  0  0  0999 V2000
   -1.5342   18.2004   -6.8203 C   0  0  0  0  0  0  0  0  0  0  0  0
   -2.7627   17.5366   -6.1972 C   0  0  0  0  0  0  0  0  0  0  0  0
   -2.3246   17.0109   -4.8261 C   0  0  0  0  0  0  0  0  0  0  0  0
   -0.4521   18.0736   -5.7803 C   0  0  0  0  0  0  0  0  0  0  0  0
   -0.9408   17.3834   -4.6917 N   0  0  0  0  0  0  0  0  0  0  0  0
    0.6891   18.4915   -5.9153 O   0  0  0  0  0  0  0  0  0  0  0  0
   -3.9462   18.4000   -6.1592 N   0  0  0  0  0  0  0  0  0  0  0  0
   -3.8890   19.2512   -5.6233 H   0  0  0  0  0  0  0  0  0  0  0  0
   -5.1028   18.1102   -6.8452 C   0  0  0  0  0  0  0  0  0  0  0  0
   -6.5749   18.4858   -8.6112 C   0  0  0  0  0  0  0  0  0  0  0  0
   -7.1673   16.9117   -7.1537 C   0  0  0  0  0  0  0  0  0  0  0  0
   -6.0071   17.1458   -6.4353 C   0  0  0  0  0  0  0  0  0  0  0  0
   -7.2385   15.5607   -5.5101 C   0  0  0  0  0  0  0  0  0  0  0  0
   -5.4240   18.7760   -7.9700 N   0  0  0  0  0  0  0  0  0  0  0  0
   -7.4957   17.5771   -8.2732 N   0  0  0  0  0  0  0  0  0  0  0  0
   -6.0749   16.2688   -5.3879 N   0  0  0  0  0  0  0  0  0  0  0  0
   -7.9220   15.9284   -6.5696 N   0  0  0  0  0  0  0  0  0  0  0  0
   -5.3914   16.1610   -4.6537 H   0  0  0  0  0  0  0  0  0  0  0  0
   -0.2023   17.1955   -3.4591 C   0  0  0  0  0  0  0  0  0  0  0  0
    0.5482   15.8850   -3.4467 C   0  0  0  0  0  0  0  0  0  0  0  0
    1.9465   15.8746   -3.3342 C   0  0  0  0  0  0  0  0  0  0  0  0
    2.6462   14.6680   -3.2813 C   0  0  0  0  0  0  0  0  0  0  0  0
    1.9546   13.4590   -3.3238 C   0  0  0  0  0  0  0  0  0  0  0  0
    0.5646   13.4557   -3.4255 C   0  0  0  0  0  0  0  0  0  0  0  0
   -0.1356   14.6618   -3.4906 C   0  0  0  0  0  0  0  0  0  0  0  0
  1  2  1  0  0  0
  1  4  1  0  0  0
  2  3  1  0  0  0
  2  7  1  0  0  0
  3  5  1  0  0  0
 19  5  1  0  0  0
 19 20  1  0  0  0
 21 22  2  0  0  0
 23 24  2  0  0  0
 25 20  2  0  0  0
 10 14  2  0  0  0
 11 15  2  0  0  0
 11 17  1  0  0  0
 12 16  1  0  0  0
 12  9  2  0  0  0
  5  4  1  0  0  0
  7  9  1  0  0  0
 16 13  1  0  0  0
  4  6  2  0  0  0
 20 21  1  0  0  0
 22 23  1  0  0  0
 24 25  1  0  0  0
  9 14  1  0  0  0
 10 15  1  0  0  0
 11 12  1  0  0  0
 13 17  2  0  0  0
  7  8  1  0  0  0
 16 18  1  0  0  0
M  END
> <minimizedAffinity>
-8.62828

$$$$
CHEMBL4649816


 25 28  0  0  0  0  0  0  0  0999 V2000
   -2.2628   15.9936   -7.3248 C   0  0  0  0  0  0  0  0  0  0  0  0
   -2.5671   17.3566   -6.7023 C   0  0  0  0  0  0  0  0  0  0  0  0
   -2.4126   17.1872   -5.1873 C   0  0  0  0  0  0  0  0  0  0  0  0
   -1.9053   15.1045   -6.1627 C   0  0  0  0  0  0  0  0  0  0  0  0
   -2.0233   15.8158   -4.9879 N   0  0  0  0  0  0  0  0  0  0  0  0
   -1.5975   13.9254   -6.2632 O   0  0  0  0  0  0  0  0  0  0  0  0
   -1.7780   18.4545   -7.2675 N   0  0  0  0  0  0  0  0  0  0  0  0
   -1.1977   18.2527   -8.0660 H   0  0  0  0  0  0  0  0  0  0  0  0
   -1.8260   19.7380   -6.7746 C   0  0  0  0  0  0  0  0  0  0  0  0
   -2.9133   21.7810   -6.5087 C   0  0  0  0  0  0  0  0  0  0  0  0
   -0.8879   21.6183   -5.6008 C   0  0  0  0  0  0  0  0  0  0  0  0
   -0.7939   20.3134   -6.0538 C   0  0  0  0  0  0  0  0  0  0  0  0
    1.0212   20.9325   -4.9554 C   0  0  0  0  0  0  0  0  0  0  0  0
   -2.9017   20.5190   -6.9855 N   0  0  0  0  0  0  0  0  0  0  0  0
   -1.9561   22.4041   -5.8135 N   0  0  0  0  0  0  0  0  0  0  0  0
    0.4368   19.8952   -5.6282 N   0  0  0  0  0  0  0  0  0  0  0  0
    0.2434   21.9903   -4.9230 N   0  0  0  0  0  0  0  0  0  0  0  0
    0.8448   18.9854   -5.7818 H   0  0  0  0  0  0  0  0  0  0  0  0
   -1.6316   15.3005   -3.6913 C   0  0  0  0  0  0  0  0  0  0  0  0
   -0.1317   15.1791   -3.5635 C   0  0  0  0  0  0  0  0  0  0  0  0
    0.6721   16.3289   -3.5755 C   0  0  0  0  0  0  0  0  0  0  0  0
    2.0554   16.2305   -3.4177 C   0  0  0  0  0  0  0  0  0  0  0  0
    2.6484   14.9836   -3.2299 C   0  0  0  0  0  0  0  0  0  0  0  0
    1.8600   13.8345   -3.2061 C   0  0  0  0  0  0  0  0  0  0  0  0
    0.4775   13.9304   -3.3758 C   0  0  0  0  0  0  0  0  0  0  0  0
  1  2  1  0  0  0
  1  4  1  0  0  0
  2  3  1  0  0  0
  2  7  1  0  0  0
  3  5  1  0  0  0
 19  5  1  0  0  0
 19 20  1  0  0  0
 21 22  2  0  0  0
 23 24  2  0  0  0
 25 20  2  0  0  0
 10 14  2  0  0  0
 11 15  2  0  0  0
 11 17  1  0  0  0
 12 16  1  0  0  0
 12  9  2  0  0  0
  5  4  1  0  0  0
  7  9  1  0  0  0
 16 13  1  0  0  0
  4  6  2  0  0  0
 20 21  1  0  0  0
 22 23  1  0  0  0
 24 25  1  0  0  0
  9 14  1  0  0  0
 10 15  1  0  0  0
 11 12  1  0  0  0
 13 17  2  0  0  0
  7  8  1  0  0  0
 16 18  1  0  0  0
M  END
> <minimizedAffinity>
-8.56744

$$$$
CHEMBL4649816


 25 28  0  0  0  0  0  0  0  0999 V2000
   -1.6606   17.0120   -6.3521 C   0  0  0  0  0  0  0  0  0  0  0  0
   -2.4629   17.3334   -5.0907 C   0  0  0  0  0  0  0  0  0  0  0  0
   -3.8330   16.6697   -5.2658 C   0  0  0  0  0  0  0  0  0  0  0  0
   -2.5708   16.1472   -7.1842 C   0  0  0  0  0  0  0  0  0  0  0  0
   -3.7808   16.0020   -6.5399 N   0  0  0  0  0  0  0  0  0  0  0  0
   -2.2772   15.6862   -8.2780 O   0  0  0  0  0  0  0  0  0  0  0  0
   -1.7770   16.9756   -3.8462 N   0  0  0  0  0  0  0  0  0  0  0  0
   -1.9721   17.5288   -3.0271 H   0  0  0  0  0  0  0  0  0  0  0  0
   -0.9150   15.9077   -3.7503 C   0  0  0  0  0  0  0  0  0  0  0  0
   -0.4833   13.6205   -3.8455 C   0  0  0  0  0  0  0  0  0  0  0  0
    1.2394   14.9262   -3.3162 C   0  0  0  0  0  0  0  0  0  0  0  0
    0.4227   16.0394   -3.4202 C   0  0  0  0  0  0  0  0  0  0  0  0
    2.4902   16.5886   -2.8648 C   0  0  0  0  0  0  0  0  0  0  0  0
   -1.3455   14.6510   -3.9669 N   0  0  0  0  0  0  0  0  0  0  0  0
    0.8139   13.6696   -3.5253 N   0  0  0  0  0  0  0  0  0  0  0  0
    1.2459   17.0916   -3.1272 N   0  0  0  0  0  0  0  0  0  0  0  0
    2.5173   15.2798   -2.9704 N   0  0  0  0  0  0  0  0  0  0  0  0
    0.9856   18.0661   -3.1062 H   0  0  0  0  0  0  0  0  0  0  0  0
   -4.8399   15.1278   -7.0023 C   0  0  0  0  0  0  0  0  0  0  0  0
   -4.7720   13.7674   -6.3501 C   0  0  0  0  0  0  0  0  0  0  0  0
   -5.9485   13.1232   -5.9390 C   0  0  0  0  0  0  0  0  0  0  0  0
   -5.9000   11.8488   -5.3720 C   0  0  0  0  0  0  0  0  0  0  0  0
   -4.6768   11.1977   -5.2246 C   0  0  0  0  0  0  0  0  0  0  0  0
   -3.5016   11.8227   -5.6381 C   0  0  0  0  0  0  0  0  0  0  0  0
   -3.5475   13.1024   -6.1945 C   0  0  0  0  0  0  0  0  0  0  0  0
  1  2  1  0  0  0
  1  4  1  0  0  0
  2  3  1  0  0  0
  2  7  1  0  0  0
  3  5  1  0  0  0
 19  5  1  0  0  0
 19 20  1  0  0  0
 21 22  2  0  0  0
 23 24  2  0  0  0
 25 20  2  0  0  0
 10 14  2  0  0  0
 11 15  2  0  0  0
 11 17  1  0  0  0
 12 16  1  0  0  0
 12  9  2  0  0  0
  5  4  1  0  0  0
  7  9  1  0  0  0
 16 13  1  0  0  0
  4  6  2  0  0  0
 20 21  1  0  0  0
 22 23  1  0  0  0
 24 25  1  0  0  0
  9 14  1  0  0  0
 10 15  1  0  0  0
 11 12  1  0  0  0
 13 17  2  0  0  0
  7  8  1  0  0  0
 16 18  1  0  0  0
M  END
> <minimizedAffinity>
-8.37272

$$$$
CHEMBL4649816


 25 28  0  0  0  0  0  0  0  0999 V2000
   -5.0434   18.3670   -6.2320 C   0  0  0  0  0  0  0  0  0  0  0  0
   -4.0698   18.3054   -7.4094 C   0  0  0  0  0  0  0  0  0  0  0  0
   -3.3931   16.9322   -7.3429 C   0  0  0  0  0  0  0  0  0  0  0  0
   -4.9272   17.0248   -5.5585 C   0  0  0  0  0  0  0  0  0  0  0  0
   -3.9766   16.2666   -6.2078 N   0  0  0  0  0  0  0  0  0  0  0  0
   -5.5596   16.6919   -4.5663 O   0  0  0  0  0  0  0  0  0  0  0  0
   -4.6866   18.6089   -8.7036 N   0  0  0  0  0  0  0  0  0  0  0  0
   -4.1754   18.3633   -9.5362 H   0  0  0  0  0  0  0  0  0  0  0  0
   -5.9337   19.1780   -8.8200 C   0  0  0  0  0  0  0  0  0  0  0  0
   -7.3363   21.0378   -8.8020 C   0  0  0  0  0  0  0  0  0  0  0  0
   -8.3176   19.0680   -9.1331 C   0  0  0  0  0  0  0  0  0  0  0  0
   -7.0849   18.4437   -9.0468 C   0  0  0  0  0  0  0  0  0  0  0  0
   -8.7155   16.9934   -9.3968 C   0  0  0  0  0  0  0  0  0  0  0  0
   -6.0992   20.5087   -8.7043 N   0  0  0  0  0  0  0  0  0  0  0  0
   -8.4894   20.3945   -9.0124 N   0  0  0  0  0  0  0  0  0  0  0  0
   -7.3650   17.1161   -9.2190 N   0  0  0  0  0  0  0  0  0  0  0  0
   -9.3196   18.1586   -9.3488 N   0  0  0  0  0  0  0  0  0  0  0  0
   -6.6980   16.3593   -9.2153 H   0  0  0  0  0  0  0  0  0  0  0  0
   -3.7053   14.8771   -5.8985 C   0  0  0  0  0  0  0  0  0  0  0  0
   -2.4822   14.7231   -5.0260 C   0  0  0  0  0  0  0  0  0  0  0  0
   -1.8560   13.4736   -4.9043 C   0  0  0  0  0  0  0  0  0  0  0  0
   -0.7019   13.3293   -4.1328 C   0  0  0  0  0  0  0  0  0  0  0  0
   -0.1520   14.4354   -3.4878 C   0  0  0  0  0  0  0  0  0  0  0  0
   -0.7589   15.6843   -3.6088 C   0  0  0  0  0  0  0  0  0  0  0  0
   -1.9201   15.8276   -4.3705 C   0  0  0  0  0  0  0  0  0  0  0  0
  1  2  1  0  0  0
  1  4  1  0  0  0
  2  3  1  0  0  0
  2  7  1  0  0  0
  3  5  1  0  0  0
 19  5  1  0  0  0
 19 20  1  0  0  0
 21 22  2  0  0  0
 23 24  2  0  0  0
 25 20  2  0  0  0
 10 14  2  0  0  0
 11 15  2  0  0  0
 11 17  1  0  0  0
 12 16  1  0  0  0
 12  9  2  0  0  0
  5  4  1  0  0  0
  7  9  1  0  0  0
 16 13  1  0  0  0
  4  6  2  0  0  0
 20 21  1  0  0  0
 22 23  1  0  0  0
 24 25  1  0  0  0
  9 14  1  0  0  0
 10 15  1  0  0  0
 11 12  1  0  0  0
 13 17  2  0  0  0
  7  8  1  0  0  0
 16 18  1  0  0  0
M  END
> <minimizedAffinity>
-8.35395

$$$$
CHEMBL4649816


 25 28  0  0  0  0  0  0  0  0999 V2000
    0.2399   13.0299   -3.8258 C   0  0  0  0  0  0  0  0  0  0  0  0
   -0.9164   13.9900   -4.1076 C   0  0  0  0  0  0  0  0  0  0  0  0
   -0.4276   15.3875   -3.7126 C   0  0  0  0  0  0  0  0  0  0  0  0
    1.3592   13.9035   -3.3231 C   0  0  0  0  0  0  0  0  0  0  0  0
    0.9276   15.2112   -3.2607 N   0  0  0  0  0  0  0  0  0  0  0  0
    2.4614   13.4920   -2.9903 O   0  0  0  0  0  0  0  0  0  0  0  0
   -1.4399   13.9007   -5.4734 N   0  0  0  0  0  0  0  0  0  0  0  0
   -0.7799   13.7540   -6.2203 H   0  0  0  0  0  0  0  0  0  0  0  0
   -2.7825   13.9757   -5.7637 C   0  0  0  0  0  0  0  0  0  0  0  0
   -4.6708   15.1927   -6.3804 C   0  0  0  0  0  0  0  0  0  0  0  0
   -4.9834   13.0257   -5.9812 C   0  0  0  0  0  0  0  0  0  0  0  0
   -3.6349   12.8870   -5.6995 C   0  0  0  0  0  0  0  0  0  0  0  0
   -4.7172   10.9713   -5.4910 C   0  0  0  0  0  0  0  0  0  0  0  0
   -3.3477   15.1436   -6.1216 N   0  0  0  0  0  0  0  0  0  0  0  0
   -5.5537   14.1897   -6.3329 N   0  0  0  0  0  0  0  0  0  0  0  0
   -3.4885   11.5631   -5.3887 N   0  0  0  0  0  0  0  0  0  0  0  0
   -5.6429   11.8321   -5.8473 N   0  0  0  0  0  0  0  0  0  0  0  0
   -2.6298   11.1018   -5.1289 H   0  0  0  0  0  0  0  0  0  0  0  0
    1.7911   16.3301   -2.9404 C   0  0  0  0  0  0  0  0  0  0  0  0
    1.3417   17.6009   -3.6215 C   0  0  0  0  0  0  0  0  0  0  0  0
    1.4863   18.8369   -2.9737 C   0  0  0  0  0  0  0  0  0  0  0  0
    1.1113   20.0210   -3.6104 C   0  0  0  0  0  0  0  0  0  0  0  0
    0.6031   19.9841   -4.9073 C   0  0  0  0  0  0  0  0  0  0  0  0
    0.4638   18.7636   -5.5657 C   0  0  0  0  0  0  0  0  0  0  0  0
    0.8273   17.5773   -4.9255 C   0  0  0  0  0  0  0  0  0  0  0  0
  1  2  1  0  0  0
  1  4  1  0  0  0
  2  3  1  0  0  0
  2  7  1  0  0  0
  3  5  1  0  0  0
 19  5  1  0  0  0
 19 20  1  0  0  0
 21 22  2  0  0  0
 23 24  2  0  0  0
 25 20  2  0  0  0
 10 14  2  0  0  0
 11 15  2  0  0  0
 11 17  1  0  0  0
 12 16  1  0  0  0
 12  9  2  0  0  0
  5  4  1  0  0  0
  7  9  1  0  0  0
 16 13  1  0  0  0
  4  6  2  0  0  0
 20 21  1  0  0  0
 22 23  1  0  0  0
 24 25  1  0  0  0
  9 14  1  0  0  0
 10 15  1  0  0  0
 11 12  1  0  0  0
 13 17  2  0  0  0
  7  8  1  0  0  0
 16 18  1  0  0  0
M  END
> <minimizedAffinity>
-8.14648

$$$$
CHEMBL3393349


 25 28  0  0  0  0  0  0  0  0999 V2000
   -0.8798   13.9198   -4.6697 C   0  0  0  0  0  0  0  0  0  0  0  0
    0.0631   14.8380   -4.0890 C   0  0  0  0  0  0  0  0  0  0  0  0
    0.9486   14.0737   -3.3449 C   0  0  0  0  0  0  0  0  0  0  0  0
    2.2161   15.8211   -2.8582 C   0  0  0  0  0  0  0  0  0  0  0  0
    0.3026   16.2312   -4.1205 C   0  0  0  0  0  0  0  0  0  0  0  0
   -0.5763   12.6602   -4.1820 C   0  0  0  0  0  0  0  0  0  0  0  0
    2.0403   14.4994   -2.6947 N   0  0  0  0  0  0  0  0  0  0  0  0
    1.4300   16.6912   -3.5211 N   0  0  0  0  0  0  0  0  0  0  0  0
    0.5282   12.7736   -3.3766 N   0  0  0  0  0  0  0  0  0  0  0  0
    1.0015   12.0207   -2.8985 H   0  0  0  0  0  0  0  0  0  0  0  0
   -1.8959   17.2142   -4.1288 C   0  0  0  0  0  0  0  0  0  0  0  0
   -2.8774   17.9073   -5.1000 C   0  0  0  0  0  0  0  0  0  0  0  0
   -1.0228   19.0726   -6.1550 C   0  0  0  0  0  0  0  0  0  0  0  0
   -0.0241   18.4113   -5.1730 C   0  0  0  0  0  0  0  0  0  0  0  0
   -3.3076   19.7540   -6.6160 C   0  0  0  0  0  0  0  0  0  0  0  0
   -0.5625   17.1200   -4.7397 N   0  0  0  0  0  0  0  0  0  0  0  0
   -2.3951   19.2080   -5.6091 N   0  0  0  0  0  0  0  0  0  0  0  0
   -4.2516   13.8951   -6.3369 C   0  0  0  0  0  0  0  0  0  0  0  0
   -3.2417   13.7362   -5.3819 C   0  0  0  0  0  0  0  0  0  0  0  0
   -1.9304   14.1541   -5.6509 C   0  0  0  0  0  0  0  0  0  0  0  0
   -1.6532   14.7747   -6.8749 C   0  0  0  0  0  0  0  0  0  0  0  0
   -2.6643   14.9533   -7.8232 C   0  0  0  0  0  0  0  0  0  0  0  0
   -3.9600   14.5072   -7.5587 C   0  0  0  0  0  0  0  0  0  0  0  0
   -5.5666   13.3828   -6.0827 C   0  0  0  0  0  0  0  0  0  0  0  0
   -6.6352   12.9689   -5.9035 N   0  0  0  0  0  0  0  0  0  0  0  0
 18 24  1  0  0  0
 19 20  2  0  0  0
 20  1  1  0  0  0
 21 22  2  0  0  0
 23 18  2  0  0  0
  1  2  1  0  0  0
  2  3  2  0  0  0
  3  9  1  0  0  0
  4  7  2  0  0  0
  5  8  2  0  0  0
  5 16  1  0  0  0
 11 16  1  0  0  0
 11 12  1  0  0  0
 12 17  1  0  0  0
 13 17  1  0  0  0
 13 14  1  0  0  0
 14 16  1  0  0  0
 15 17  1  0  0  0
  9  6  1  0  0  0
 18 19  1  0  0  0
 20 21  1  0  0  0
 22 23  1  0  0  0
  3  7  1  0  0  0
  4  8  1  0  0  0
  5  2  1  0  0  0
  6  1  2  0  0  0
 24 25  3  0  0  0
  9 10  1  0  0  0
M  END
> <minimizedAffinity>
-8.69959

$$$$
CHEMBL3393349


 25 28  0  0  0  0  0  0  0  0999 V2000
    0.1016   14.3352   -3.8522 C   0  0  0  0  0  0  0  0  0  0  0  0
    0.4715   15.7119   -3.6599 C   0  0  0  0  0  0  0  0  0  0  0  0
    1.6873   15.7028   -2.9936 C   0  0  0  0  0  0  0  0  0  0  0  0
    1.8903   17.9033   -3.1101 C   0  0  0  0  0  0  0  0  0  0  0  0
   -0.0570   16.9804   -3.9931 C   0  0  0  0  0  0  0  0  0  0  0  0
    1.0606   13.5626   -3.2197 C   0  0  0  0  0  0  0  0  0  0  0  0
    2.4470   16.7602   -2.6766 N   0  0  0  0  0  0  0  0  0  0  0  0
    0.7106   18.0703   -3.7386 N   0  0  0  0  0  0  0  0  0  0  0  0
    2.0082   14.4071   -2.6997 N   0  0  0  0  0  0  0  0  0  0  0  0
    2.8452   14.1367   -2.2040 H   0  0  0  0  0  0  0  0  0  0  0  0
   -2.4405   16.9021   -3.6571 C   0  0  0  0  0  0  0  0  0  0  0  0
   -3.7430   16.7153   -4.4667 C   0  0  0  0  0  0  0  0  0  0  0  0
   -2.8158   18.0431   -6.2799 C   0  0  0  0  0  0  0  0  0  0  0  0
   -1.5122   18.2675   -5.4740 C   0  0  0  0  0  0  0  0  0  0  0  0
   -5.1844   17.5085   -6.2519 C   0  0  0  0  0  0  0  0  0  0  0  0
   -1.3097   17.1362   -4.5662 N   0  0  0  0  0  0  0  0  0  0  0  0
   -4.0080   17.8032   -5.4310 N   0  0  0  0  0  0  0  0  0  0  0  0
   -2.5402   13.8953   -6.4936 C   0  0  0  0  0  0  0  0  0  0  0  0
   -1.4454   14.3971   -5.7816 C   0  0  0  0  0  0  0  0  0  0  0  0
   -0.9976   13.7600   -4.6154 C   0  0  0  0  0  0  0  0  0  0  0  0
   -1.6347   12.5861   -4.1956 C   0  0  0  0  0  0  0  0  0  0  0  0
   -2.7160   12.0709   -4.9160 C   0  0  0  0  0  0  0  0  0  0  0  0
   -3.1737   12.7283   -6.0588 C   0  0  0  0  0  0  0  0  0  0  0  0
   -3.0420   14.6067   -7.6331 C   0  0  0  0  0  0  0  0  0  0  0  0
   -3.4310   15.2024   -8.5492 N   0  0  0  0  0  0  0  0  0  0  0  0
 18 24  1  0  0  0
 19 20  2  0  0  0
 20  1  1  0  0  0
 21 22  2  0  0  0
 23 18  2  0  0  0
  1  2  1  0  0  0
  2  3  2  0  0  0
  3  9  1  0  0  0
  4  7  2  0  0  0
  5  8  2  0  0  0
  5 16  1  0  0  0
 11 16  1  0  0  0
 11 12  1  0  0  0
 12 17  1  0  0  0
 13 17  1  0  0  0
 13 14  1  0  0  0
 14 16  1  0  0  0
 15 17  1  0  0  0
  9  6  1  0  0  0
 18 19  1  0  0  0
 20 21  1  0  0  0
 22 23  1  0  0  0
  3  7  1  0  0  0
  4  8  1  0  0  0
  5  2  1  0  0  0
  6  1  2  0  0  0
 24 25  3  0  0  0
  9 10  1  0  0  0
M  END
> <minimizedAffinity>
-8.66122

$$$$
CHEMBL3393349


 25 28  0  0  0  0  0  0  0  0999 V2000
   -0.4401   13.9767   -4.2563 C   0  0  0  0  0  0  0  0  0  0  0  0
    0.1925   15.2164   -3.8931 C   0  0  0  0  0  0  0  0  0  0  0  0
    1.3556   14.8809   -3.2172 C   0  0  0  0  0  0  0  0  0  0  0  0
    2.0028   16.9913   -3.0624 C   0  0  0  0  0  0  0  0  0  0  0  0
   -0.0562   16.5963   -4.0762 C   0  0  0  0  0  0  0  0  0  0  0  0
    0.3189   12.9557   -3.7102 C   0  0  0  0  0  0  0  0  0  0  0  0
    2.3006   15.7159   -2.7640 N   0  0  0  0  0  0  0  0  0  0  0  0
    0.9054   17.4686   -3.6811 N   0  0  0  0  0  0  0  0  0  0  0  0
    1.3972   13.5217   -3.0791 N   0  0  0  0  0  0  0  0  0  0  0  0
    2.1432   13.0297   -2.6092 H   0  0  0  0  0  0  0  0  0  0  0  0
   -2.4320   16.8934   -3.8165 C   0  0  0  0  0  0  0  0  0  0  0  0
   -3.7004   17.0857   -4.6772 C   0  0  0  0  0  0  0  0  0  0  0  0
   -2.4582   18.5138   -6.2030 C   0  0  0  0  0  0  0  0  0  0  0  0
   -1.1820   18.3583   -5.3392 C   0  0  0  0  0  0  0  0  0  0  0  0
   -4.8816   18.4187   -6.3270 C   0  0  0  0  0  0  0  0  0  0  0  0
   -1.2293   17.0711   -4.6422 N   0  0  0  0  0  0  0  0  0  0  0  0
   -3.7190   18.3518   -5.4389 N   0  0  0  0  0  0  0  0  0  0  0  0
   -3.6483   12.4855   -5.5343 C   0  0  0  0  0  0  0  0  0  0  0  0
   -2.5574   12.7804   -4.7095 C   0  0  0  0  0  0  0  0  0  0  0  0
   -1.6033   13.7318   -5.0980 C   0  0  0  0  0  0  0  0  0  0  0  0
   -1.7807   14.4172   -6.3059 C   0  0  0  0  0  0  0  0  0  0  0  0
   -2.8804   14.1393   -7.1227 C   0  0  0  0  0  0  0  0  0  0  0  0
   -3.8088   13.1694   -6.7421 C   0  0  0  0  0  0  0  0  0  0  0  0
   -4.5665   11.4476   -5.1656 C   0  0  0  0  0  0  0  0  0  0  0  0
   -5.2991   10.6083   -4.8425 N   0  0  0  0  0  0  0  0  0  0  0  0
 18 24  1  0  0  0
 19 20  2  0  0  0
 20  1  1  0  0  0
 21 22  2  0  0  0
 23 18  2  0  0  0
  1  2  1  0  0  0
  2  3  2  0  0  0
  3  9  1  0  0  0
  4  7  2  0  0  0
  5  8  2  0  0  0
  5 16  1  0  0  0
 11 16  1  0  0  0
 11 12  1  0  0  0
 12 17  1  0  0  0
 13 17  1  0  0  0
 13 14  1  0  0  0
 14 16  1  0  0  0
 15 17  1  0  0  0
  9  6  1  0  0  0
 18 19  1  0  0  0
 20 21  1  0  0  0
 22 23  1  0  0  0
  3  7  1  0  0  0
  4  8  1  0  0  0
  5  2  1  0  0  0
  6  1  2  0  0  0
 24 25  3  0  0  0
  9 10  1  0  0  0
M  END
> <minimizedAffinity>
-8.64963

$$$$
CHEMBL3393349


 25 28  0  0  0  0  0  0  0  0999 V2000
    1.2131   16.0324   -3.9178 C   0  0  0  0  0  0  0  0  0  0  0  0
    0.2540   14.9723   -4.0772 C   0  0  0  0  0  0  0  0  0  0  0  0
    0.8540   13.8226   -3.5867 C   0  0  0  0  0  0  0  0  0  0  0  0
   -0.9806   12.6169   -3.8649 C   0  0  0  0  0  0  0  0  0  0  0  0
   -1.0713   14.8402   -4.5519 C   0  0  0  0  0  0  0  0  0  0  0  0
    2.3735   15.4621   -3.4232 C   0  0  0  0  0  0  0  0  0  0  0  0
    0.3004   12.6087   -3.4608 N   0  0  0  0  0  0  0  0  0  0  0  0
   -1.6834   13.6400   -4.3883 N   0  0  0  0  0  0  0  0  0  0  0  0
    2.1402   14.1235   -3.2358 N   0  0  0  0  0  0  0  0  0  0  0  0
    2.7904   13.4481   -2.8610 H   0  0  0  0  0  0  0  0  0  0  0  0
   -2.1843   15.6193   -6.5404 C   0  0  0  0  0  0  0  0  0  0  0  0
   -2.5636   16.9428   -7.2413 C   0  0  0  0  0  0  0  0  0  0  0  0
   -3.0849   17.9431   -5.0877 C   0  0  0  0  0  0  0  0  0  0  0  0
   -2.7374   16.6171   -4.3666 C   0  0  0  0  0  0  0  0  0  0  0  0
   -3.7614   19.0521   -7.1395 C   0  0  0  0  0  0  0  0  0  0  0  0
   -1.7496   15.8842   -5.1617 N   0  0  0  0  0  0  0  0  0  0  0  0
   -3.5377   17.7596   -6.4880 N   0  0  0  0  0  0  0  0  0  0  0  0
    1.1730   19.7337   -3.2482 C   0  0  0  0  0  0  0  0  0  0  0  0
    1.3682   18.3576   -3.0879 C   0  0  0  0  0  0  0  0  0  0  0  0
    1.0656   17.4662   -4.1273 C   0  0  0  0  0  0  0  0  0  0  0  0
    0.6057   17.9766   -5.3472 C   0  0  0  0  0  0  0  0  0  0  0  0
    0.4288   19.3526   -5.5174 C   0  0  0  0  0  0  0  0  0  0  0  0
    0.7041   20.2298   -4.4674 C   0  0  0  0  0  0  0  0  0  0  0  0
    1.4021   20.6238   -2.1476 C   0  0  0  0  0  0  0  0  0  0  0  0
    1.5803   21.3646   -1.2729 N   0  0  0  0  0  0  0  0  0  0  0  0
 18 24  1  0  0  0
 19 20  2  0  0  0
 20  1  1  0  0  0
 21 22  2  0  0  0
 23 18  2  0  0  0
  1  2  1  0  0  0
  2  3  2  0  0  0
  3  9  1  0  0  0
  4  7  2  0  0  0
  5  8  2  0  0  0
  5 16  1  0  0  0
 11 16  1  0  0  0
 11 12  1  0  0  0
 12 17  1  0  0  0
 13 17  1  0  0  0
 13 14  1  0  0  0
 14 16  1  0  0  0
 15 17  1  0  0  0
  9  6  1  0  0  0
 18 19  1  0  0  0
 20 21  1  0  0  0
 22 23  1  0  0  0
  3  7  1  0  0  0
  4  8  1  0  0  0
  5  2  1  0  0  0
  6  1  2  0  0  0
 24 25  3  0  0  0
  9 10  1  0  0  0
M  END
> <minimizedAffinity>
-8.26624

$$$$
CHEMBL3393349


 25 28  0  0  0  0  0  0  0  0999 V2000
   -0.6939   17.9107   -4.7130 C   0  0  0  0  0  0  0  0  0  0  0  0
   -1.5080   18.6763   -5.6188 C   0  0  0  0  0  0  0  0  0  0  0  0
   -0.9584   19.9485   -5.6615 C   0  0  0  0  0  0  0  0  0  0  0  0
   -2.3651   20.6205   -7.2320 C   0  0  0  0  0  0  0  0  0  0  0  0
   -2.6353   18.4470   -6.4409 C   0  0  0  0  0  0  0  0  0  0  0  0
    0.2514   18.7734   -4.1852 C   0  0  0  0  0  0  0  0  0  0  0  0
   -1.3419   20.9726   -6.4360 N   0  0  0  0  0  0  0  0  0  0  0  0
   -3.0170   19.4427   -7.2803 N   0  0  0  0  0  0  0  0  0  0  0  0
    0.0717   20.0034   -4.7650 N   0  0  0  0  0  0  0  0  0  0  0  0
    0.6266   20.8307   -4.6005 H   0  0  0  0  0  0  0  0  0  0  0  0
   -4.6693   17.3338   -5.7898 C   0  0  0  0  0  0  0  0  0  0  0  0
   -5.1893   15.9155   -5.4662 C   0  0  0  0  0  0  0  0  0  0  0  0
   -3.8224   14.9977   -7.2550 C   0  0  0  0  0  0  0  0  0  0  0  0
   -3.3099   16.4141   -7.6155 C   0  0  0  0  0  0  0  0  0  0  0  0
   -5.5474   13.6362   -6.2215 C   0  0  0  0  0  0  0  0  0  0  0  0
   -3.3424   17.2547   -6.4167 N   0  0  0  0  0  0  0  0  0  0  0  0
   -5.1625   14.9920   -6.6194 N   0  0  0  0  0  0  0  0  0  0  0  0
    0.4528   14.4669   -3.7258 C   0  0  0  0  0  0  0  0  0  0  0  0
    0.4441   15.8451   -3.9662 C   0  0  0  0  0  0  0  0  0  0  0  0
   -0.7227   16.4874   -4.4050 C   0  0  0  0  0  0  0  0  0  0  0  0
   -1.8946   15.7368   -4.5576 C   0  0  0  0  0  0  0  0  0  0  0  0
   -1.8944   14.3632   -4.2988 C   0  0  0  0  0  0  0  0  0  0  0  0
   -0.7209   13.7270   -3.8913 C   0  0  0  0  0  0  0  0  0  0  0  0
    1.6747   13.8095   -3.3638 C   0  0  0  0  0  0  0  0  0  0  0  0
    2.6616   13.2631   -3.0935 N   0  0  0  0  0  0  0  0  0  0  0  0
 18 24  1  0  0  0
 19 20  2  0  0  0
 20  1  1  0  0  0
 21 22  2  0  0  0
 23 18  2  0  0  0
  1  2  1  0  0  0
  2  3  2  0  0  0
  3  9  1  0  0  0
  4  7  2  0  0  0
  5  8  2  0  0  0
  5 16  1  0  0  0
 11 16  1  0  0  0
 11 12  1  0  0  0
 12 17  1  0  0  0
 13 17  1  0  0  0
 13 14  1  0  0  0
 14 16  1  0  0  0
 15 17  1  0  0  0
  9  6  1  0  0  0
 18 19  1  0  0  0
 20 21  1  0  0  0
 22 23  1  0  0  0
  3  7  1  0  0  0
  4  8  1  0  0  0
  5  2  1  0  0  0
  6  1  2  0  0  0
 24 25  3  0  0  0
  9 10  1  0  0  0
M  END
> <minimizedAffinity>
-8.02012

$$$$
CHEMBL3393349


 25 28  0  0  0  0  0  0  0  0999 V2000
   -2.1166   13.3485   -5.2724 C   0  0  0  0  0  0  0  0  0  0  0  0
   -3.4679   13.0971   -5.6967 C   0  0  0  0  0  0  0  0  0  0  0  0
   -3.6110   11.7194   -5.7572 C   0  0  0  0  0  0  0  0  0  0  0  0
   -5.7676   11.8561   -6.2341 C   0  0  0  0  0  0  0  0  0  0  0  0
   -4.6118   13.8657   -6.0133 C   0  0  0  0  0  0  0  0  0  0  0  0
   -1.4823   12.1213   -5.1817 C   0  0  0  0  0  0  0  0  0  0  0  0
   -4.7278   11.0306   -6.0295 N   0  0  0  0  0  0  0  0  0  0  0  0
   -5.7746   13.2031   -6.2384 N   0  0  0  0  0  0  0  0  0  0  0  0
   -2.3996   11.1478   -5.4854 N   0  0  0  0  0  0  0  0  0  0  0  0
   -2.2403   10.1508   -5.4794 H   0  0  0  0  0  0  0  0  0  0  0  0
   -4.8933   15.8022   -7.4171 C   0  0  0  0  0  0  0  0  0  0  0  0
   -4.4518   17.2807   -7.4943 C   0  0  0  0  0  0  0  0  0  0  0  0
   -4.6867   17.4850   -5.0832 C   0  0  0  0  0  0  0  0  0  0  0  0
   -5.1594   16.0132   -4.9857 C   0  0  0  0  0  0  0  0  0  0  0  0
   -4.4210   19.4731   -6.4521 C   0  0  0  0  0  0  0  0  0  0  0  0
   -4.5787   15.2494   -6.0923 N   0  0  0  0  0  0  0  0  0  0  0  0
   -4.9728   18.1178   -6.3936 N   0  0  0  0  0  0  0  0  0  0  0  0
   -0.9564   16.9236   -5.4193 C   0  0  0  0  0  0  0  0  0  0  0  0
   -1.6207   15.7300   -5.7215 C   0  0  0  0  0  0  0  0  0  0  0  0
   -1.4696   14.6004   -4.9045 C   0  0  0  0  0  0  0  0  0  0  0  0
   -0.6775   14.6957   -3.7540 C   0  0  0  0  0  0  0  0  0  0  0  0
   -0.0286   15.8928   -3.4382 C   0  0  0  0  0  0  0  0  0  0  0  0
   -0.1608   17.0030   -4.2734 C   0  0  0  0  0  0  0  0  0  0  0  0
   -1.0495   18.0423   -6.3116 C   0  0  0  0  0  0  0  0  0  0  0  0
   -1.1318   18.9628   -7.0126 N   0  0  0  0  0  0  0  0  0  0  0  0
 18 24  1  0  0  0
 19 20  2  0  0  0
 20  1  1  0  0  0
 21 22  2  0  0  0
 23 18  2  0  0  0
  1  2  1  0  0  0
  2  3  2  0  0  0
  3  9  1  0  0  0
  4  7  2  0  0  0
  5  8  2  0  0  0
  5 16  1  0  0  0
 11 16  1  0  0  0
 11 12  1  0  0  0
 12 17  1  0  0  0
 13 17  1  0  0  0
 13 14  1  0  0  0
 14 16  1  0  0  0
 15 17  1  0  0  0
  9  6  1  0  0  0
 18 19  1  0  0  0
 20 21  1  0  0  0
 22 23  1  0  0  0
  3  7  1  0  0  0
  4  8  1  0  0  0
  5  2  1  0  0  0
  6  1  2  0  0  0
 24 25  3  0  0  0
  9 10  1  0  0  0
M  END
> <minimizedAffinity>
-7.98139

$$$$
CHEMBL3393349


 25 28  0  0  0  0  0  0  0  0999 V2000
   -0.7111   14.3133   -4.1097 C   0  0  0  0  0  0  0  0  0  0  0  0
   -0.3250   15.6925   -4.2435 C   0  0  0  0  0  0  0  0  0  0  0  0
    0.8097   15.8603   -3.4646 C   0  0  0  0  0  0  0  0  0  0  0  0
    1.0876   17.9528   -4.1289 C   0  0  0  0  0  0  0  0  0  0  0  0
   -0.7769   16.8280   -4.9546 C   0  0  0  0  0  0  0  0  0  0  0  0
    0.1502   13.7354   -3.1926 C   0  0  0  0  0  0  0  0  0  0  0  0
    1.5602   16.9647   -3.3513 N   0  0  0  0  0  0  0  0  0  0  0  0
   -0.0108   17.9473   -4.9087 N   0  0  0  0  0  0  0  0  0  0  0  0
    1.0590   14.6880   -2.8077 N   0  0  0  0  0  0  0  0  0  0  0  0
    1.8284   14.5585   -2.1670 H   0  0  0  0  0  0  0  0  0  0  0  0
   -2.9613   17.8004   -5.2431 C   0  0  0  0  0  0  0  0  0  0  0  0
   -4.3394   17.4530   -5.8488 C   0  0  0  0  0  0  0  0  0  0  0  0
   -3.2477   16.3448   -7.7171 C   0  0  0  0  0  0  0  0  0  0  0  0
   -1.8555   16.7074   -7.1431 C   0  0  0  0  0  0  0  0  0  0  0  0
   -5.6236   16.8373   -7.8150 C   0  0  0  0  0  0  0  0  0  0  0  0
   -1.9542   16.8262   -5.6866 N   0  0  0  0  0  0  0  0  0  0  0  0
   -4.3215   17.2862   -7.3170 N   0  0  0  0  0  0  0  0  0  0  0  0
   -4.0277   13.3751   -5.6159 C   0  0  0  0  0  0  0  0  0  0  0  0
   -3.0113   14.1106   -4.9968 C   0  0  0  0  0  0  0  0  0  0  0  0
   -1.7361   13.5564   -4.8153 C   0  0  0  0  0  0  0  0  0  0  0  0
   -1.4793   12.2693   -5.3029 C   0  0  0  0  0  0  0  0  0  0  0  0
   -2.4870   11.5395   -5.9400 C   0  0  0  0  0  0  0  0  0  0  0  0
   -3.7617   12.0877   -6.0894 C   0  0  0  0  0  0  0  0  0  0  0  0
   -5.3501   13.9208   -5.7146 C   0  0  0  0  0  0  0  0  0  0  0  0
   -6.4284   14.3388   -5.8043 N   0  0  0  0  0  0  0  0  0  0  0  0
 18 24  1  0  0  0
 19 20  2  0  0  0
 20  1  1  0  0  0
 21 22  2  0  0  0
 23 18  2  0  0  0
  1  2  1  0  0  0
  2  3  2  0  0  0
  3  9  1  0  0  0
  4  7  2  0  0  0
  5  8  2  0  0  0
  5 16  1  0  0  0
 11 16  1  0  0  0
 11 12  1  0  0  0
 12 17  1  0  0  0
 13 17  1  0  0  0
 13 14  1  0  0  0
 14 16  1  0  0  0
 15 17  1  0  0  0
  9  6  1  0  0  0
 18 19  1  0  0  0
 20 21  1  0  0  0
 22 23  1  0  0  0
  3  7  1  0  0  0
  4  8  1  0  0  0
  5  2  1  0  0  0
  6  1  2  0  0  0
 24 25  3  0  0  0
  9 10  1  0  0  0
M  END
> <minimizedAffinity>
-7.83933

$$$$
CHEMBL3393349


 25 28  0  0  0  0  0  0  0  0999 V2000
   -2.1768   13.7463   -5.5105 C   0  0  0  0  0  0  0  0  0  0  0  0
   -3.5764   13.5096   -5.7436 C   0  0  0  0  0  0  0  0  0  0  0  0
   -3.7702   12.1427   -5.6168 C   0  0  0  0  0  0  0  0  0  0  0  0
   -5.9626   12.3222   -5.8576 C   0  0  0  0  0  0  0  0  0  0  0  0
   -4.7242   14.2877   -6.0200 C   0  0  0  0  0  0  0  0  0  0  0  0
   -1.5763   12.5104   -5.3419 C   0  0  0  0  0  0  0  0  0  0  0  0
   -4.9332   11.4793   -5.6727 N   0  0  0  0  0  0  0  0  0  0  0  0
   -5.9264   13.6580   -6.0274 N   0  0  0  0  0  0  0  0  0  0  0  0
   -2.5543   11.5515   -5.4165 N   0  0  0  0  0  0  0  0  0  0  0  0
   -2.4278   10.5560   -5.3057 H   0  0  0  0  0  0  0  0  0  0  0  0
   -4.8967   16.0331   -7.6704 C   0  0  0  0  0  0  0  0  0  0  0  0
   -4.4184   17.4819   -7.9134 C   0  0  0  0  0  0  0  0  0  0  0  0
   -4.7589   17.9970   -5.5619 C   0  0  0  0  0  0  0  0  0  0  0  0
   -5.2691   16.5579   -5.3012 C   0  0  0  0  0  0  0  0  0  0  0  0
   -4.3853   19.7888   -7.1578 C   0  0  0  0  0  0  0  0  0  0  0  0
   -4.6559   15.6491   -6.2724 N   0  0  0  0  0  0  0  0  0  0  0  0
   -4.9700   18.4616   -6.9545 N   0  0  0  0  0  0  0  0  0  0  0  0
    0.2769   16.3145   -4.2723 C   0  0  0  0  0  0  0  0  0  0  0  0
   -0.3920   15.1004   -4.4615 C   0  0  0  0  0  0  0  0  0  0  0  0
   -1.4503   15.0015   -5.3762 C   0  0  0  0  0  0  0  0  0  0  0  0
   -1.8013   16.1262   -6.1325 C   0  0  0  0  0  0  0  0  0  0  0  0
   -1.1217   17.3355   -5.9604 C   0  0  0  0  0  0  0  0  0  0  0  0
   -0.0894   17.4324   -5.0262 C   0  0  0  0  0  0  0  0  0  0  0  0
    1.2970   16.4231   -3.2704 C   0  0  0  0  0  0  0  0  0  0  0  0
    2.1362   16.4917   -2.4726 N   0  0  0  0  0  0  0  0  0  0  0  0
 18 24  1  0  0  0
 19 20  2  0  0  0
 20  1  1  0  0  0
 21 22  2  0  0  0
 23 18  2  0  0  0
  1  2  1  0  0  0
  2  3  2  0  0  0
  3  9  1  0  0  0
  4  7  2  0  0  0
  5  8  2  0  0  0
  5 16  1  0  0  0
 11 16  1  0  0  0
 11 12  1  0  0  0
 12 17  1  0  0  0
 13 17  1  0  0  0
 13 14  1  0  0  0
 14 16  1  0  0  0
 15 17  1  0  0  0
  9  6  1  0  0  0
 18 19  1  0  0  0
 20 21  1  0  0  0
 22 23  1  0  0  0
  3  7  1  0  0  0
  4  8  1  0  0  0
  5  2  1  0  0  0
  6  1  2  0  0  0
 24 25  3  0  0  0
  9 10  1  0  0  0
M  END
> <minimizedAffinity>
-7.82202

$$$$
CHEMBL3393349


 25 28  0  0  0  0  0  0  0  0999 V2000
   -1.2299   18.4988   -5.9116 C   0  0  0  0  0  0  0  0  0  0  0  0
   -0.1963   18.4944   -4.9111 C   0  0  0  0  0  0  0  0  0  0  0  0
    0.2901   19.7909   -4.8429 C   0  0  0  0  0  0  0  0  0  0  0  0
    1.6238   19.3160   -3.1421 C   0  0  0  0  0  0  0  0  0  0  0  0
    0.3780   17.5564   -4.0225 C   0  0  0  0  0  0  0  0  0  0  0  0
   -1.2604   19.7690   -6.4614 C   0  0  0  0  0  0  0  0  0  0  0  0
    1.2068   20.2700   -3.9909 N   0  0  0  0  0  0  0  0  0  0  0  0
    1.2681   18.0172   -3.1075 N   0  0  0  0  0  0  0  0  0  0  0  0
   -0.3293   20.5351   -5.8075 N   0  0  0  0  0  0  0  0  0  0  0  0
   -0.1373   21.5131   -5.9689 H   0  0  0  0  0  0  0  0  0  0  0  0
    1.1189   15.3071   -3.5845 C   0  0  0  0  0  0  0  0  0  0  0  0
    0.8195   13.8569   -4.0251 C   0  0  0  0  0  0  0  0  0  0  0  0
   -1.5580   14.3601   -4.0932 C   0  0  0  0  0  0  0  0  0  0  0  0
   -1.2836   15.8106   -3.6244 C   0  0  0  0  0  0  0  0  0  0  0  0
   -0.7988   12.0560   -4.2030 C   0  0  0  0  0  0  0  0  0  0  0  0
    0.0581   16.2080   -4.0569 N   0  0  0  0  0  0  0  0  0  0  0  0
   -0.5305   13.3860   -3.6518 N   0  0  0  0  0  0  0  0  0  0  0  0
   -4.3472   16.3968   -6.0244 C   0  0  0  0  0  0  0  0  0  0  0  0
   -3.4521   17.4287   -5.7224 C   0  0  0  0  0  0  0  0  0  0  0  0
   -2.1699   17.4525   -6.2897 C   0  0  0  0  0  0  0  0  0  0  0  0
   -1.8113   16.4506   -7.1995 C   0  0  0  0  0  0  0  0  0  0  0  0
   -2.7105   15.4293   -7.5189 C   0  0  0  0  0  0  0  0  0  0  0  0
   -3.9738   15.3972   -6.9265 C   0  0  0  0  0  0  0  0  0  0  0  0
   -5.6212   16.3373   -5.3688 C   0  0  0  0  0  0  0  0  0  0  0  0
   -6.6416   16.3037   -4.8182 N   0  0  0  0  0  0  0  0  0  0  0  0
 18 24  1  0  0  0
 19 20  2  0  0  0
 20  1  1  0  0  0
 21 22  2  0  0  0
 23 18  2  0  0  0
  1  2  1  0  0  0
  2  3  2  0  0  0
  3  9  1  0  0  0
  4  7  2  0  0  0
  5  8  2  0  0  0
  5 16  1  0  0  0
 11 16  1  0  0  0
 11 12  1  0  0  0
 12 17  1  0  0  0
 13 17  1  0  0  0
 13 14  1  0  0  0
 14 16  1  0  0  0
 15 17  1  0  0  0
  9  6  1  0  0  0
 18 19  1  0  0  0
 20 21  1  0  0  0
 22 23  1  0  0  0
  3  7  1  0  0  0
  4  8  1  0  0  0
  5  2  1  0  0  0
  6  1  2  0  0  0
 24 25  3  0  0  0
  9 10  1  0  0  0
M  END
> <minimizedAffinity>
-7.64562

$$$$
CHEMBL3715062


 26 28  0  0  0  0  0  0  0  0999 V2000
   -0.2434   18.0734   -4.3017 N   0  0  0  0  0  0  0  0  0  0  0  0
    1.3982   16.7610   -3.1132 N   0  0  0  0  0  0  0  0  0  0  0  0
    1.0183   14.4065   -3.2681 N   0  0  0  0  0  0  0  0  0  0  0  0
    0.8431   17.9102   -3.5243 C   0  0  0  0  0  0  0  0  0  0  0  0
    0.6906   15.7049   -3.5367 C   0  0  0  0  0  0  0  0  0  0  0  0
   -0.4602   15.7177   -4.3097 C   0  0  0  0  0  0  0  0  0  0  0  0
   -0.9079   16.9788   -4.7644 C   0  0  0  0  0  0  0  0  0  0  0  0
   -0.8961   14.3538   -4.3997 C   0  0  0  0  0  0  0  0  0  0  0  0
    0.0853   13.5543   -3.8106 C   0  0  0  0  0  0  0  0  0  0  0  0
    0.0243   12.1567   -3.8109 C   0  0  0  0  0  0  0  0  0  0  0  0
   -1.0687   11.5571   -4.4501 C   0  0  0  0  0  0  0  0  0  0  0  0
   -2.0938   12.3223   -5.0156 C   0  0  0  0  0  0  0  0  0  0  0  0
   -2.0388   13.7189   -4.9339 C   0  0  0  0  0  0  0  0  0  0  0  0
    1.8318   14.1332   -2.7384 H   0  0  0  0  0  0  0  0  0  0  0  0
   -4.4625   12.1587   -5.6391 N   0  0  0  0  0  0  0  0  0  0  0  0
   -3.2072   11.6186   -5.7128 C   0  0  0  0  0  0  0  0  0  0  0  0
   -3.0121   10.6038   -6.3720 O   0  0  0  0  0  0  0  0  0  0  0  0
   -5.1982   11.6763   -6.1388 H   0  0  0  0  0  0  0  0  0  0  0  0
   -4.6972   13.0207   -5.1734 H   0  0  0  0  0  0  0  0  0  0  0  0
   -1.9727   17.1683   -5.6345 N   0  0  0  0  0  0  0  0  0  0  0  0
   -3.1671   17.8227   -5.1049 C   0  0  0  0  0  0  0  0  0  0  0  0
   -4.0864   16.7695   -4.4739 C   0  0  0  0  0  0  0  0  0  0  0  0
   -5.4208   16.6685   -5.1917 C   0  0  0  0  0  0  0  0  0  0  0  0
   -1.7602   17.1175   -7.0776 C   0  0  0  0  0  0  0  0  0  0  0  0
   -2.7711   16.2441   -7.8166 C   0  0  0  0  0  0  0  0  0  0  0  0
   -2.0920   14.9775   -8.3293 C   0  0  0  0  0  0  0  0  0  0  0  0
  3  5  1  0  0  0
  4  2  2  0  0  0
  5  6  2  0  0  0
  6  8  1  0  0  0
  7 20  1  0  0  0
  7  1  2  0  0  0
 21 20  1  0  0  0
 21 22  1  0  0  0
 22 23  1  0  0  0
 24 20  1  0  0  0
 24 25  1  0  0  0
 25 26  1  0  0  0
  9  3  1  0  0  0
  9 10  2  0  0  0
 11 12  2  0  0  0
 12 16  1  0  0  0
 13  8  2  0  0  0
 16 15  1  0  0  0
  4  1  1  0  0  0
  5  2  1  0  0  0
  6  7  1  0  0  0
  8  9  1  0  0  0
 10 11  1  0  0  0
 12 13  1  0  0  0
 16 17  2  0  0  0
  3 14  1  0  0  0
 15 18  1  0  0  0
 15 19  1  0  0  0
M  END
> <minimizedAffinity>
-8.17877

$$$$
CHEMBL3715062


 26 28  0  0  0  0  0  0  0  0999 V2000
   -3.5324   13.8383   -5.8991 N   0  0  0  0  0  0  0  0  0  0  0  0
   -2.3665   11.9024   -5.0487 N   0  0  0  0  0  0  0  0  0  0  0  0
   -0.3558   12.4487   -3.8780 N   0  0  0  0  0  0  0  0  0  0  0  0
   -3.3555   12.5170   -5.7137 C   0  0  0  0  0  0  0  0  0  0  0  0
   -1.4705   12.7873   -4.5908 C   0  0  0  0  0  0  0  0  0  0  0  0
   -1.5007   14.1660   -4.7324 C   0  0  0  0  0  0  0  0  0  0  0  0
   -2.6349   14.7160   -5.3717 C   0  0  0  0  0  0  0  0  0  0  0  0
   -0.2727   14.6521   -4.1719 C   0  0  0  0  0  0  0  0  0  0  0  0
    0.3807   13.5706   -3.5779 C   0  0  0  0  0  0  0  0  0  0  0  0
    1.5683   13.7093   -2.8517 C   0  0  0  0  0  0  0  0  0  0  0  0
    2.0956   14.9999   -2.7144 C   0  0  0  0  0  0  0  0  0  0  0  0
    1.4947   16.1033   -3.3287 C   0  0  0  0  0  0  0  0  0  0  0  0
    0.3473   15.9194   -4.1095 C   0  0  0  0  0  0  0  0  0  0  0  0
   -0.1211   11.5015   -3.6237 H   0  0  0  0  0  0  0  0  0  0  0  0
    3.3945   17.5286   -2.7076 N   0  0  0  0  0  0  0  0  0  0  0  0
    2.0883   17.4526   -3.1089 C   0  0  0  0  0  0  0  0  0  0  0  0
    1.4482   18.4769   -3.3166 O   0  0  0  0  0  0  0  0  0  0  0  0
    3.7828   18.4550   -2.5866 H   0  0  0  0  0  0  0  0  0  0  0  0
    4.0082   16.7405   -2.5759 H   0  0  0  0  0  0  0  0  0  0  0  0
   -2.8830   16.0756   -5.5005 N   0  0  0  0  0  0  0  0  0  0  0  0
   -2.3969   16.7376   -6.7092 C   0  0  0  0  0  0  0  0  0  0  0  0
   -1.5339   17.9432   -6.3165 C   0  0  0  0  0  0  0  0  0  0  0  0
   -2.1022   19.2505   -6.8400 C   0  0  0  0  0  0  0  0  0  0  0  0
   -3.9277   16.7104   -4.7031 C   0  0  0  0  0  0  0  0  0  0  0  0
   -5.1371   17.1579   -5.5204 C   0  0  0  0  0  0  0  0  0  0  0  0
   -6.2859   16.1703   -5.3385 C   0  0  0  0  0  0  0  0  0  0  0  0
  3  5  1  0  0  0
  4  2  2  0  0  0
  5  6  2  0  0  0
  6  8  1  0  0  0
  7 20  1  0  0  0
  7  1  2  0  0  0
 21 20  1  0  0  0
 21 22  1  0  0  0
 22 23  1  0  0  0
 24 20  1  0  0  0
 24 25  1  0  0  0
 25 26  1  0  0  0
  9  3  1  0  0  0
  9 10  2  0  0  0
 11 12  2  0  0  0
 12 16  1  0  0  0
 13  8  2  0  0  0
 16 15  1  0  0  0
  4  1  1  0  0  0
  5  2  1  0  0  0
  6  7  1  0  0  0
  8  9  1  0  0  0
 10 11  1  0  0  0
 12 13  1  0  0  0
 16 17  2  0  0  0
  3 14  1  0  0  0
 15 18  1  0  0  0
 15 19  1  0  0  0
M  END
> <minimizedAffinity>
-8.01572

$$$$
CHEMBL3715062


 26 28  0  0  0  0  0  0  0  0999 V2000
   -2.6480   12.9784   -5.0706 N   0  0  0  0  0  0  0  0  0  0  0  0
   -0.7574   12.1388   -3.8253 N   0  0  0  0  0  0  0  0  0  0  0  0
    0.8015   13.8428   -3.2103 N   0  0  0  0  0  0  0  0  0  0  0  0
   -1.9108   12.0096   -4.4968 C   0  0  0  0  0  0  0  0  0  0  0  0
   -0.3436   13.4132   -3.8182 C   0  0  0  0  0  0  0  0  0  0  0  0
   -0.9744   14.5064   -4.3917 C   0  0  0  0  0  0  0  0  0  0  0  0
   -2.2302   14.2722   -4.9964 C   0  0  0  0  0  0  0  0  0  0  0  0
   -0.0881   15.6199   -4.2096 C   0  0  0  0  0  0  0  0  0  0  0  0
    0.9691   15.1940   -3.4032 C   0  0  0  0  0  0  0  0  0  0  0  0
    1.9703   16.0586   -2.9480 C   0  0  0  0  0  0  0  0  0  0  0  0
    1.8771   17.4070   -3.3162 C   0  0  0  0  0  0  0  0  0  0  0  0
    0.8575   17.8657   -4.1565 C   0  0  0  0  0  0  0  0  0  0  0  0
   -0.0873   16.9602   -4.6542 C   0  0  0  0  0  0  0  0  0  0  0  0
    1.4261   13.2359   -2.7017 H   0  0  0  0  0  0  0  0  0  0  0  0
    0.6602   20.2062   -3.4429 N   0  0  0  0  0  0  0  0  0  0  0  0
    0.7976   19.3200   -4.4766 C   0  0  0  0  0  0  0  0  0  0  0  0
    0.9074   19.7290   -5.6268 O   0  0  0  0  0  0  0  0  0  0  0  0
    0.6446   21.1892   -3.6819 H   0  0  0  0  0  0  0  0  0  0  0  0
    0.6267   19.9590   -2.4667 H   0  0  0  0  0  0  0  0  0  0  0  0
   -3.0485   15.2641   -5.5190 N   0  0  0  0  0  0  0  0  0  0  0  0
   -3.7474   14.9719   -6.7686 C   0  0  0  0  0  0  0  0  0  0  0  0
   -2.7254   14.8464   -7.9054 C   0  0  0  0  0  0  0  0  0  0  0  0
   -1.8447   16.0779   -8.0239 C   0  0  0  0  0  0  0  0  0  0  0  0
   -3.5221   16.3504   -4.6668 C   0  0  0  0  0  0  0  0  0  0  0  0
   -4.1836   17.4908   -5.4368 C   0  0  0  0  0  0  0  0  0  0  0  0
   -3.1894   18.6301   -5.6407 C   0  0  0  0  0  0  0  0  0  0  0  0
  3  5  1  0  0  0
  4  2  2  0  0  0
  5  6  2  0  0  0
  6  8  1  0  0  0
  7 20  1  0  0  0
  7  1  2  0  0  0
 21 20  1  0  0  0
 21 22  1  0  0  0
 22 23  1  0  0  0
 24 20  1  0  0  0
 24 25  1  0  0  0
 25 26  1  0  0  0
  9  3  1  0  0  0
  9 10  2  0  0  0
 11 12  2  0  0  0
 12 16  1  0  0  0
 13  8  2  0  0  0
 16 15  1  0  0  0
  4  1  1  0  0  0
  5  2  1  0  0  0
  6  7  1  0  0  0
  8  9  1  0  0  0
 10 11  1  0  0  0
 12 13  1  0  0  0
 16 17  2  0  0  0
  3 14  1  0  0  0
 15 18  1  0  0  0
 15 19  1  0  0  0
M  END
> <minimizedAffinity>
-7.93548

$$$$
CHEMBL3715062


 26 28  0  0  0  0  0  0  0  0999 V2000
   -1.2273   19.3083   -6.0045 N   0  0  0  0  0  0  0  0  0  0  0  0
    0.7946   19.5186   -4.7015 N   0  0  0  0  0  0  0  0  0  0  0  0
    1.5334   17.4488   -3.7622 N   0  0  0  0  0  0  0  0  0  0  0  0
   -0.2101   19.9944   -5.4512 C   0  0  0  0  0  0  0  0  0  0  0  0
    0.6589   18.2020   -4.4925 C   0  0  0  0  0  0  0  0  0  0  0  0
   -0.3472   17.3738   -4.9655 C   0  0  0  0  0  0  0  0  0  0  0  0
   -1.3059   17.9613   -5.8218 C   0  0  0  0  0  0  0  0  0  0  0  0
   -0.1112   16.0849   -4.3811 C   0  0  0  0  0  0  0  0  0  0  0  0
    1.1080   16.1425   -3.7032 C   0  0  0  0  0  0  0  0  0  0  0  0
    1.6901   15.0249   -3.0956 C   0  0  0  0  0  0  0  0  0  0  0  0
    1.0103   13.8044   -3.1998 C   0  0  0  0  0  0  0  0  0  0  0  0
   -0.2329   13.7128   -3.8340 C   0  0  0  0  0  0  0  0  0  0  0  0
   -0.8224   14.8649   -4.3681 C   0  0  0  0  0  0  0  0  0  0  0  0
    2.3654   17.8201   -3.3299 H   0  0  0  0  0  0  0  0  0  0  0  0
   -0.1029   11.2621   -3.7778 N   0  0  0  0  0  0  0  0  0  0  0  0
   -0.8817   12.3755   -3.9413 C   0  0  0  0  0  0  0  0  0  0  0  0
   -2.0871   12.2603   -4.1308 O   0  0  0  0  0  0  0  0  0  0  0  0
   -0.5690   10.3657   -3.8324 H   0  0  0  0  0  0  0  0  0  0  0  0
    0.8801   11.2685   -3.5569 H   0  0  0  0  0  0  0  0  0  0  0  0
   -2.3129   17.2617   -6.4723 N   0  0  0  0  0  0  0  0  0  0  0  0
   -3.6863   17.7218   -6.2786 C   0  0  0  0  0  0  0  0  0  0  0  0
   -4.2555   17.0984   -4.9980 C   0  0  0  0  0  0  0  0  0  0  0  0
   -5.6306   16.4925   -5.2169 C   0  0  0  0  0  0  0  0  0  0  0  0
   -1.9950   16.4046   -7.6102 C   0  0  0  0  0  0  0  0  0  0  0  0
   -3.1273   15.4580   -8.0009 C   0  0  0  0  0  0  0  0  0  0  0  0
   -3.0797   14.2010   -7.1374 C   0  0  0  0  0  0  0  0  0  0  0  0
  3  5  1  0  0  0
  4  2  2  0  0  0
  5  6  2  0  0  0
  6  8  1  0  0  0
  7 20  1  0  0  0
  7  1  2  0  0  0
 21 20  1  0  0  0
 21 22  1  0  0  0
 22 23  1  0  0  0
 24 20  1  0  0  0
 24 25  1  0  0  0
 25 26  1  0  0  0
  9  3  1  0  0  0
  9 10  2  0  0  0
 11 12  2  0  0  0
 12 16  1  0  0  0
 13  8  2  0  0  0
 16 15  1  0  0  0
  4  1  1  0  0  0
  5  2  1  0  0  0
  6  7  1  0  0  0
  8  9  1  0  0  0
 10 11  1  0  0  0
 12 13  1  0  0  0
 16 17  2  0  0  0
  3 14  1  0  0  0
 15 18  1  0  0  0
 15 19  1  0  0  0
M  END
> <minimizedAffinity>
-7.88329

$$$$
CHEMBL3715062


 26 28  0  0  0  0  0  0  0  0999 V2000
   -3.5122   13.8965   -6.2085 N   0  0  0  0  0  0  0  0  0  0  0  0
   -2.4117   11.9546   -5.2877 N   0  0  0  0  0  0  0  0  0  0  0  0
   -0.4768   12.4906   -3.9911 N   0  0  0  0  0  0  0  0  0  0  0  0
   -3.3535   12.5743   -6.0135 C   0  0  0  0  0  0  0  0  0  0  0  0
   -1.5425   12.8349   -4.7729 C   0  0  0  0  0  0  0  0  0  0  0  0
   -1.5571   14.2139   -4.9149 C   0  0  0  0  0  0  0  0  0  0  0  0
   -2.6459   14.7696   -5.6243 C   0  0  0  0  0  0  0  0  0  0  0  0
   -0.3650   14.6937   -4.2770 C   0  0  0  0  0  0  0  0  0  0  0  0
    0.2443   13.6088   -3.6437 C   0  0  0  0  0  0  0  0  0  0  0  0
    1.3840   13.7414   -2.8434 C   0  0  0  0  0  0  0  0  0  0  0  0
    1.9076   15.0294   -2.6717 C   0  0  0  0  0  0  0  0  0  0  0  0
    1.3520   16.1361   -3.3218 C   0  0  0  0  0  0  0  0  0  0  0  0
    0.2557   15.9581   -4.1741 C   0  0  0  0  0  0  0  0  0  0  0  0
   -0.2632   11.5421   -3.7233 H   0  0  0  0  0  0  0  0  0  0  0  0
    3.2380   17.5546   -2.6457 N   0  0  0  0  0  0  0  0  0  0  0  0
    1.9368   17.4823   -3.0635 C   0  0  0  0  0  0  0  0  0  0  0  0
    1.2942   18.5085   -3.2541 O   0  0  0  0  0  0  0  0  0  0  0  0
    3.6205   18.4797   -2.4984 H   0  0  0  0  0  0  0  0  0  0  0  0
    3.8539   16.7664   -2.5257 H   0  0  0  0  0  0  0  0  0  0  0  0
   -2.8790   16.1304   -5.7673 N   0  0  0  0  0  0  0  0  0  0  0  0
   -3.5727   16.8132   -4.6775 C   0  0  0  0  0  0  0  0  0  0  0  0
   -5.0836   16.5893   -4.8172 C   0  0  0  0  0  0  0  0  0  0  0  0
   -5.6631   17.3176   -6.0171 C   0  0  0  0  0  0  0  0  0  0  0  0
   -2.1075   16.9107   -6.7297 C   0  0  0  0  0  0  0  0  0  0  0  0
   -2.1676   18.4169   -6.4877 C   0  0  0  0  0  0  0  0  0  0  0  0
   -0.7962   18.9338   -6.0634 C   0  0  0  0  0  0  0  0  0  0  0  0
  3  5  1  0  0  0
  4  2  2  0  0  0
  5  6  2  0  0  0
  6  8  1  0  0  0
  7 20  1  0  0  0
  7  1  2  0  0  0
 21 20  1  0  0  0
 21 22  1  0  0  0
 22 23  1  0  0  0
 24 20  1  0  0  0
 24 25  1  0  0  0
 25 26  1  0  0  0
  9  3  1  0  0  0
  9 10  2  0  0  0
 11 12  2  0  0  0
 12 16  1  0  0  0
 13  8  2  0  0  0
 16 15  1  0  0  0
  4  1  1  0  0  0
  5  2  1  0  0  0
  6  7  1  0  0  0
  8  9  1  0  0  0
 10 11  1  0  0  0
 12 13  1  0  0  0
 16 17  2  0  0  0
  3 14  1  0  0  0
 15 18  1  0  0  0
 15 19  1  0  0  0
M  END
> <minimizedAffinity>
-7.86197

$$$$
CHEMBL3715062


 26 28  0  0  0  0  0  0  0  0999 V2000
    0.7449   17.6371   -3.4612 N   0  0  0  0  0  0  0  0  0  0  0  0
    2.2688   15.9273   -2.6968 N   0  0  0  0  0  0  0  0  0  0  0  0
    1.5515   13.7121   -3.2360 N   0  0  0  0  0  0  0  0  0  0  0  0
    1.8518   17.1940   -2.8369 C   0  0  0  0  0  0  0  0  0  0  0  0
    1.3907   15.0684   -3.2322 C   0  0  0  0  0  0  0  0  0  0  0  0
    0.1994   15.3723   -3.8729 C   0  0  0  0  0  0  0  0  0  0  0  0
   -0.0990   16.7429   -4.0461 C   0  0  0  0  0  0  0  0  0  0  0  0
   -0.4292   14.1160   -4.1642 C   0  0  0  0  0  0  0  0  0  0  0  0
    0.4707   13.1026   -3.8288 C   0  0  0  0  0  0  0  0  0  0  0  0
    0.2141   11.7497   -4.0754 C   0  0  0  0  0  0  0  0  0  0  0  0
   -0.9962   11.4245   -4.7015 C   0  0  0  0  0  0  0  0  0  0  0  0
   -1.9424   12.4054   -5.0157 C   0  0  0  0  0  0  0  0  0  0  0  0
   -1.6859   13.7424   -4.6891 C   0  0  0  0  0  0  0  0  0  0  0  0
    2.3553   13.2434   -2.8471 H   0  0  0  0  0  0  0  0  0  0  0  0
   -4.1694   12.9314   -5.9045 N   0  0  0  0  0  0  0  0  0  0  0  0
   -3.1918   11.9926   -5.7154 C   0  0  0  0  0  0  0  0  0  0  0  0
   -3.3380   10.8562   -6.1509 O   0  0  0  0  0  0  0  0  0  0  0  0
   -4.9990   12.6343   -6.4017 H   0  0  0  0  0  0  0  0  0  0  0  0
   -4.1039   13.9001   -5.6353 H   0  0  0  0  0  0  0  0  0  0  0  0
   -1.1876   17.2268   -4.7584 N   0  0  0  0  0  0  0  0  0  0  0  0
   -0.9760   17.5669   -6.1637 C   0  0  0  0  0  0  0  0  0  0  0  0
   -0.9777   19.0923   -6.3236 C   0  0  0  0  0  0  0  0  0  0  0  0
   -2.2214   19.5931   -7.0367 C   0  0  0  0  0  0  0  0  0  0  0  0
   -2.5443   17.0024   -4.2690 C   0  0  0  0  0  0  0  0  0  0  0  0
   -3.5031   16.4798   -5.3359 C   0  0  0  0  0  0  0  0  0  0  0  0
   -4.9445   16.7827   -4.9374 C   0  0  0  0  0  0  0  0  0  0  0  0
  3  5  1  0  0  0
  4  2  2  0  0  0
  5  6  2  0  0  0
  6  8  1  0  0  0
  7 20  1  0  0  0
  7  1  2  0  0  0
 21 20  1  0  0  0
 21 22  1  0  0  0
 22 23  1  0  0  0
 24 20  1  0  0  0
 24 25  1  0  0  0
 25 26  1  0  0  0
  9  3  1  0  0  0
  9 10  2  0  0  0
 11 12  2  0  0  0
 12 16  1  0  0  0
 13  8  2  0  0  0
 16 15  1  0  0  0
  4  1  1  0  0  0
  5  2  1  0  0  0
  6  7  1  0  0  0
  8  9  1  0  0  0
 10 11  1  0  0  0
 12 13  1  0  0  0
 16 17  2  0  0  0
  3 14  1  0  0  0
 15 18  1  0  0  0
 15 19  1  0  0  0
M  END
> <minimizedAffinity>
-7.64720

$$$$
CHEMBL3715062


 26 28  0  0  0  0  0  0  0  0999 V2000
   -0.7224   19.6386   -5.2826 N   0  0  0  0  0  0  0  0  0  0  0  0
    1.3693   19.6210   -4.0765 N   0  0  0  0  0  0  0  0  0  0  0  0
    2.0324   17.4376   -3.3660 N   0  0  0  0  0  0  0  0  0  0  0  0
    0.3583   20.2161   -4.7260 C   0  0  0  0  0  0  0  0  0  0  0  0
    1.1683   18.2999   -3.9783 C   0  0  0  0  0  0  0  0  0  0  0  0
    0.0943   17.5730   -4.4684 C   0  0  0  0  0  0  0  0  0  0  0  0
   -0.8695   18.2866   -5.2164 C   0  0  0  0  0  0  0  0  0  0  0  0
    0.2838   16.2252   -4.0144 C   0  0  0  0  0  0  0  0  0  0  0  0
    1.5358   16.1557   -3.4005 C   0  0  0  0  0  0  0  0  0  0  0  0
    2.0814   14.9578   -2.9268 C   0  0  0  0  0  0  0  0  0  0  0  0
    1.3282   13.7898   -3.1024 C   0  0  0  0  0  0  0  0  0  0  0  0
    0.0524   13.8228   -3.6745 C   0  0  0  0  0  0  0  0  0  0  0  0
   -0.4951   15.0487   -4.0717 C   0  0  0  0  0  0  0  0  0  0  0  0
    2.9045   17.7230   -2.9477 H   0  0  0  0  0  0  0  0  0  0  0  0
    0.0361   11.3711   -3.7969 N   0  0  0  0  0  0  0  0  0  0  0  0
   -0.6769   12.5372   -3.8653 C   0  0  0  0  0  0  0  0  0  0  0  0
   -1.8897   12.5071   -4.0397 O   0  0  0  0  0  0  0  0  0  0  0  0
   -0.4836   10.5099   -3.9069 H   0  0  0  0  0  0  0  0  0  0  0  0
    1.0208   11.3036   -3.5948 H   0  0  0  0  0  0  0  0  0  0  0  0
   -1.9456   17.7039   -5.8715 N   0  0  0  0  0  0  0  0  0  0  0  0
   -1.6771   17.0278   -7.1388 C   0  0  0  0  0  0  0  0  0  0  0  0
   -2.1164   15.5618   -7.0360 C   0  0  0  0  0  0  0  0  0  0  0  0
   -2.8210   15.0845   -8.2937 C   0  0  0  0  0  0  0  0  0  0  0  0
   -3.1750   17.4058   -5.1433 C   0  0  0  0  0  0  0  0  0  0  0  0
   -4.4192   18.0500   -5.7497 C   0  0  0  0  0  0  0  0  0  0  0  0
   -5.5596   17.0377   -5.8022 C   0  0  0  0  0  0  0  0  0  0  0  0
  3  5  1  0  0  0
  4  2  2  0  0  0
  5  6  2  0  0  0
  6  8  1  0  0  0
  7 20  1  0  0  0
  7  1  2  0  0  0
 21 20  1  0  0  0
 21 22  1  0  0  0
 22 23  1  0  0  0
 24 20  1  0  0  0
 24 25  1  0  0  0
 25 26  1  0  0  0
  9  3  1  0  0  0
  9 10  2  0  0  0
 11 12  2  0  0  0
 12 16  1  0  0  0
 13  8  2  0  0  0
 16 15  1  0  0  0
  4  1  1  0  0  0
  5  2  1  0  0  0
  6  7  1  0  0  0
  8  9  1  0  0  0
 10 11  1  0  0  0
 12 13  1  0  0  0
 16 17  2  0  0  0
  3 14  1  0  0  0
 15 18  1  0  0  0
 15 19  1  0  0  0
M  END
> <minimizedAffinity>
-7.58784

$$$$
CHEMBL3715062


 26 28  0  0  0  0  0  0  0  0999 V2000
    0.2350   13.6193   -3.8961 N   0  0  0  0  0  0  0  0  0  0  0  0
    2.2518   14.1270   -2.6695 N   0  0  0  0  0  0  0  0  0  0  0  0
    2.7290   16.4664   -2.5614 N   0  0  0  0  0  0  0  0  0  0  0  0
    1.3395   13.2981   -3.1973 C   0  0  0  0  0  0  0  0  0  0  0  0
    1.9721   15.4036   -2.9652 C   0  0  0  0  0  0  0  0  0  0  0  0
    0.8974   15.8818   -3.6989 C   0  0  0  0  0  0  0  0  0  0  0  0
   -0.0531   14.9292   -4.1309 C   0  0  0  0  0  0  0  0  0  0  0  0
    1.1015   17.2958   -3.8310 C   0  0  0  0  0  0  0  0  0  0  0  0
    2.2041   17.6410   -3.0470 C   0  0  0  0  0  0  0  0  0  0  0  0
    2.6235   18.9639   -2.8708 C   0  0  0  0  0  0  0  0  0  0  0  0
    1.8799   19.9681   -3.5041 C   0  0  0  0  0  0  0  0  0  0  0  0
    0.7946   19.6614   -4.3312 C   0  0  0  0  0  0  0  0  0  0  0  0
    0.4457   18.3225   -4.5451 C   0  0  0  0  0  0  0  0  0  0  0  0
    3.5570   16.3790   -1.9924 H   0  0  0  0  0  0  0  0  0  0  0  0
    0.5137   22.0531   -4.8080 N   0  0  0  0  0  0  0  0  0  0  0  0
    0.0253   20.7818   -4.9427 C   0  0  0  0  0  0  0  0  0  0  0  0
   -0.9984   20.5813   -5.5864 O   0  0  0  0  0  0  0  0  0  0  0  0
   -0.0131   22.7949   -5.2505 H   0  0  0  0  0  0  0  0  0  0  0  0
    1.3777   22.2977   -4.3511 H   0  0  0  0  0  0  0  0  0  0  0  0
   -1.2410   15.2411   -4.7776 N   0  0  0  0  0  0  0  0  0  0  0  0
   -1.5798   14.4713   -5.9726 C   0  0  0  0  0  0  0  0  0  0  0  0
   -2.6223   13.4055   -5.6122 C   0  0  0  0  0  0  0  0  0  0  0  0
   -3.8884   13.5382   -6.4401 C   0  0  0  0  0  0  0  0  0  0  0  0
   -2.2871   15.9793   -4.0768 C   0  0  0  0  0  0  0  0  0  0  0  0
   -2.9778   17.0330   -4.9391 C   0  0  0  0  0  0  0  0  0  0  0  0
   -4.4902   16.8372   -4.8932 C   0  0  0  0  0  0  0  0  0  0  0  0
  3  5  1  0  0  0
  4  2  2  0  0  0
  5  6  2  0  0  0
  6  8  1  0  0  0
  7 20  1  0  0  0
  7  1  2  0  0  0
 21 20  1  0  0  0
 21 22  1  0  0  0
 22 23  1  0  0  0
 24 20  1  0  0  0
 24 25  1  0  0  0
 25 26  1  0  0  0
  9  3  1  0  0  0
  9 10  2  0  0  0
 11 12  2  0  0  0
 12 16  1  0  0  0
 13  8  2  0  0  0
 16 15  1  0  0  0
  4  1  1  0  0  0
  5  2  1  0  0  0
  6  7  1  0  0  0
  8  9  1  0  0  0
 10 11  1  0  0  0
 12 13  1  0  0  0
 16 17  2  0  0  0
  3 14  1  0  0  0
 15 18  1  0  0  0
 15 19  1  0  0  0
M  END
> <minimizedAffinity>
-7.09813

$$$$
CHEMBL3715062


 26 28  0  0  0  0  0  0  0  0999 V2000
   -1.3507   13.1855   -4.7750 N   0  0  0  0  0  0  0  0  0  0  0  0
    0.5902   12.7369   -3.4107 N   0  0  0  0  0  0  0  0  0  0  0  0
    1.7890   14.7104   -2.7942 N   0  0  0  0  0  0  0  0  0  0  0  0
   -0.4853   12.3825   -4.1288 C   0  0  0  0  0  0  0  0  0  0  0  0
    0.7714   14.0643   -3.4363 C   0  0  0  0  0  0  0  0  0  0  0  0
   -0.0115   15.0085   -4.0824 C   0  0  0  0  0  0  0  0  0  0  0  0
   -1.1726   14.5348   -4.7344 C   0  0  0  0  0  0  0  0  0  0  0  0
    0.6534   16.2674   -3.9051 C   0  0  0  0  0  0  0  0  0  0  0  0
    1.7252   16.0630   -3.0340 C   0  0  0  0  0  0  0  0  0  0  0  0
    2.5325   17.1064   -2.5687 C   0  0  0  0  0  0  0  0  0  0  0  0
    2.2221   18.4042   -2.9954 C   0  0  0  0  0  0  0  0  0  0  0  0
    1.1833   18.6465   -3.8999 C   0  0  0  0  0  0  0  0  0  0  0  0
    0.4408   17.5716   -4.4034 C   0  0  0  0  0  0  0  0  0  0  0  0
    2.4833   14.2412   -2.2330 H   0  0  0  0  0  0  0  0  0  0  0  0
    0.3894   20.2973   -5.5342 N   0  0  0  0  0  0  0  0  0  0  0  0
    0.8844   20.0559   -4.2813 C   0  0  0  0  0  0  0  0  0  0  0  0
    1.0350   20.9804   -3.4909 O   0  0  0  0  0  0  0  0  0  0  0  0
    0.1727   21.2588   -5.7630 H   0  0  0  0  0  0  0  0  0  0  0  0
    0.1769   19.5910   -6.2206 H   0  0  0  0  0  0  0  0  0  0  0  0
   -2.1246   15.3476   -5.3341 N   0  0  0  0  0  0  0  0  0  0  0  0
   -2.9298   16.1991   -4.4612 C   0  0  0  0  0  0  0  0  0  0  0  0
   -3.2885   17.4928   -5.2029 C   0  0  0  0  0  0  0  0  0  0  0  0
   -4.7724   17.5845   -5.5120 C   0  0  0  0  0  0  0  0  0  0  0  0
   -2.0343   15.6575   -6.7575 C   0  0  0  0  0  0  0  0  0  0  0  0
   -2.8347   14.7072   -7.6447 C   0  0  0  0  0  0  0  0  0  0  0  0
   -4.0548   14.1891   -6.8891 C   0  0  0  0  0  0  0  0  0  0  0  0
  3  5  1  0  0  0
  4  2  2  0  0  0
  5  6  2  0  0  0
  6  8  1  0  0  0
  7 20  1  0  0  0
  7  1  2  0  0  0
 21 20  1  0  0  0
 21 22  1  0  0  0
 22 23  1  0  0  0
 24 20  1  0  0  0
 24 25  1  0  0  0
 25 26  1  0  0  0
  9  3  1  0  0  0
  9 10  2  0  0  0
 11 12  2  0  0  0
 12 16  1  0  0  0
 13  8  2  0  0  0
 16 15  1  0  0  0
  4  1  1  0  0  0
  5  2  1  0  0  0
  6  7  1  0  0  0
  8  9  1  0  0  0
 10 11  1  0  0  0
 12 13  1  0  0  0
 16 17  2  0  0  0
  3 14  1  0  0  0
 15 18  1  0  0  0
 15 19  1  0  0  0
M  END
> <minimizedAffinity>
-7.09179

$$$$
CHEMBL3717493


 28 31  0  0  0  0  0  0  0  0999 V2000
   -2.5620   14.7380   -5.1426 C   0  0  0  0  0  0  0  0  0  0  0  0
   -2.8792   12.4225   -5.3582 C   0  0  0  0  0  0  0  0  0  0  0  0
   -1.0387   13.1084   -4.3241 C   0  0  0  0  0  0  0  0  0  0  0  0
   -1.3345   14.4480   -4.5061 C   0  0  0  0  0  0  0  0  0  0  0  0
   -0.2107   15.1797   -3.9910 C   0  0  0  0  0  0  0  0  0  0  0  0
    0.6826   14.2577   -3.4403 C   0  0  0  0  0  0  0  0  0  0  0  0
    1.8745   14.6370   -2.8112 C   0  0  0  0  0  0  0  0  0  0  0  0
    2.1691   16.0063   -2.7336 C   0  0  0  0  0  0  0  0  0  0  0  0
    1.3171   16.9614   -3.2946 C   0  0  0  0  0  0  0  0  0  0  0  0
    0.1446   16.5441   -3.9446 C   0  0  0  0  0  0  0  0  0  0  0  0
   -3.2922   13.6777   -5.5888 N   0  0  0  0  0  0  0  0  0  0  0  0
   -1.7682   12.0568   -4.7131 N   0  0  0  0  0  0  0  0  0  0  0  0
    0.1526   13.0091   -3.6647 N   0  0  0  0  0  0  0  0  0  0  0  0
   -3.6768   11.4176   -5.8279 N   0  0  0  0  0  0  0  0  0  0  0  0
    0.5755   12.1309   -3.4065 H   0  0  0  0  0  0  0  0  0  0  0  0
   -3.3908   10.4695   -5.6652 H   0  0  0  0  0  0  0  0  0  0  0  0
   -4.5191   11.6804   -6.3075 H   0  0  0  0  0  0  0  0  0  0  0  0
   -5.1502   17.5437   -6.5648 C   0  0  0  0  0  0  0  0  0  0  0  0
   -4.0858   16.8598   -7.4201 C   0  0  0  0  0  0  0  0  0  0  0  0
   -2.7886   16.6667   -6.6377 C   0  0  0  0  0  0  0  0  0  0  0  0
   -4.0859   16.5692   -4.5021 C   0  0  0  0  0  0  0  0  0  0  0  0
   -5.3860   16.7512   -5.2829 C   0  0  0  0  0  0  0  0  0  0  0  0
   -3.0421   16.0161   -5.3583 N   0  0  0  0  0  0  0  0  0  0  0  0
    1.5602   18.4323   -3.2267 C   0  0  0  0  0  0  0  0  0  0  0  0
    0.5698   19.2851   -3.6215 N   0  0  0  0  0  0  0  0  0  0  0  0
    2.6303   18.8874   -2.8353 O   0  0  0  0  0  0  0  0  0  0  0  0
    0.7805   20.2735   -3.5681 H   0  0  0  0  0  0  0  0  0  0  0  0
   -0.3424   19.0124   -3.9475 H   0  0  0  0  0  0  0  0  0  0  0  0
 18 19  1  0  0  0
 19 20  1  0  0  0
 20 23  1  0  0  0
 21 23  1  0  0  0
 21 22  1  0  0  0
 22 18  1  0  0  0
  2 11  2  0  0  0
  2 14  1  0  0  0
  3 12  2  0  0  0
  4  5  1  0  0  0
  4  1  2  0  0  0
  6 13  1  0  0  0
  6  7  2  0  0  0
  8  9  2  0  0  0
  9 24  1  0  0  0
 10  5  2  0  0  0
 24 25  1  0  0  0
 23  1  1  0  0  0
 13  3  1  0  0  0
  1 11  1  0  0  0
  2 12  1  0  0  0
  3  4  1  0  0  0
  5  6  1  0  0  0
  7  8  1  0  0  0
  9 10  1  0  0  0
 24 26  2  0  0  0
 13 15  1  0  0  0
 25 27  1  0  0  0
 25 28  1  0  0  0
 14 16  1  0  0  0
 14 17  1  0  0  0
M  END
> <minimizedAffinity>
-9.83063

$$$$
CHEMBL3717493


 28 31  0  0  0  0  0  0  0  0999 V2000
   -0.7316   17.0450   -4.6541 C   0  0  0  0  0  0  0  0  0  0  0  0
    1.0608   17.9138   -3.4128 C   0  0  0  0  0  0  0  0  0  0  0  0
    0.8495   15.7055   -3.4915 C   0  0  0  0  0  0  0  0  0  0  0  0
   -0.2984   15.7585   -4.2626 C   0  0  0  0  0  0  0  0  0  0  0  0
   -0.7471   14.4015   -4.4063 C   0  0  0  0  0  0  0  0  0  0  0  0
    0.1934   13.5734   -3.7889 C   0  0  0  0  0  0  0  0  0  0  0  0
    0.0857   12.1775   -3.7780 C   0  0  0  0  0  0  0  0  0  0  0  0
   -1.0173   11.5989   -4.4232 C   0  0  0  0  0  0  0  0  0  0  0  0
   -1.9960   12.3903   -5.0303 C   0  0  0  0  0  0  0  0  0  0  0  0
   -1.8722   13.7886   -4.9967 C   0  0  0  0  0  0  0  0  0  0  0  0
   -0.0308   18.1075   -4.1678 N   0  0  0  0  0  0  0  0  0  0  0  0
    1.5760   16.7370   -3.0468 N   0  0  0  0  0  0  0  0  0  0  0  0
    1.1464   14.3972   -3.2384 N   0  0  0  0  0  0  0  0  0  0  0  0
    1.7125   19.0327   -2.9771 N   0  0  0  0  0  0  0  0  0  0  0  0
    1.9476   14.1009   -2.7025 H   0  0  0  0  0  0  0  0  0  0  0  0
    2.5341   18.9140   -2.4130 H   0  0  0  0  0  0  0  0  0  0  0  0
    1.3392   19.9233   -3.2529 H   0  0  0  0  0  0  0  0  0  0  0  0
   -3.9735   16.0430   -6.9078 C   0  0  0  0  0  0  0  0  0  0  0  0
   -2.5319   15.9363   -7.4001 C   0  0  0  0  0  0  0  0  0  0  0  0
   -1.6917   17.1128   -6.9081 C   0  0  0  0  0  0  0  0  0  0  0  0
   -3.1688   17.3349   -4.9026 C   0  0  0  0  0  0  0  0  0  0  0  0
   -4.0046   16.1514   -5.3865 C   0  0  0  0  0  0  0  0  0  0  0  0
   -1.8242   17.2827   -5.4666 N   0  0  0  0  0  0  0  0  0  0  0  0
   -3.1798   11.8381   -5.7520 C   0  0  0  0  0  0  0  0  0  0  0  0
   -4.3333   12.5677   -5.7856 N   0  0  0  0  0  0  0  0  0  0  0  0
   -3.1402   10.7428   -6.3036 O   0  0  0  0  0  0  0  0  0  0  0  0
   -5.1138   12.1515   -6.2774 H   0  0  0  0  0  0  0  0  0  0  0  0
   -4.4635   13.4768   -5.3741 H   0  0  0  0  0  0  0  0  0  0  0  0
 18 19  1  0  0  0
 19 20  1  0  0  0
 20 23  1  0  0  0
 21 23  1  0  0  0
 21 22  1  0  0  0
 22 18  1  0  0  0
  2 11  2  0  0  0
  2 14  1  0  0  0
  3 12  2  0  0  0
  4  5  1  0  0  0
  4  1  2  0  0  0
  6 13  1  0  0  0
  6  7  2  0  0  0
  8  9  2  0  0  0
  9 24  1  0  0  0
 10  5  2  0  0  0
 24 25  1  0  0  0
 23  1  1  0  0  0
 13  3  1  0  0  0
  1 11  1  0  0  0
  2 12  1  0  0  0
  3  4  1  0  0  0
  5  6  1  0  0  0
  7  8  1  0  0  0
  9 10  1  0  0  0
 24 26  2  0  0  0
 13 15  1  0  0  0
 25 27  1  0  0  0
 25 28  1  0  0  0
 14 16  1  0  0  0
 14 17  1  0  0  0
M  END
> <minimizedAffinity>
-9.78180

$$$$
CHEMBL3717493


 28 31  0  0  0  0  0  0  0  0999 V2000
   -1.2148   18.0992   -5.7869 C   0  0  0  0  0  0  0  0  0  0  0  0
   -0.1240   20.1507   -5.4551 C   0  0  0  0  0  0  0  0  0  0  0  0
    0.7646   18.3559   -4.4978 C   0  0  0  0  0  0  0  0  0  0  0  0
   -0.2302   17.5126   -4.9608 C   0  0  0  0  0  0  0  0  0  0  0  0
    0.0415   16.2223   -4.3909 C   0  0  0  0  0  0  0  0  0  0  0  0
    1.2373   16.3152   -3.6749 C   0  0  0  0  0  0  0  0  0  0  0  0
    1.8191   15.2217   -3.0220 C   0  0  0  0  0  0  0  0  0  0  0  0
    1.1640   13.9841   -3.1032 C   0  0  0  0  0  0  0  0  0  0  0  0
   -0.0480   13.8516   -3.7862 C   0  0  0  0  0  0  0  0  0  0  0  0
   -0.6187   14.9757   -4.4044 C   0  0  0  0  0  0  0  0  0  0  0  0
   -1.1385   19.4461   -5.9781 N   0  0  0  0  0  0  0  0  0  0  0  0
    0.8801   19.6705   -4.7166 N   0  0  0  0  0  0  0  0  0  0  0  0
    1.6468   17.6252   -3.7550 N   0  0  0  0  0  0  0  0  0  0  0  0
   -0.1158   21.4937   -5.7056 N   0  0  0  0  0  0  0  0  0  0  0  0
    2.4669   18.0173   -3.3184 H   0  0  0  0  0  0  0  0  0  0  0  0
    0.6348   22.0423   -5.3276 H   0  0  0  0  0  0  0  0  0  0  0  0
   -0.8614   21.8649   -6.2667 H   0  0  0  0  0  0  0  0  0  0  0  0
   -3.5325   14.8391   -6.5572 C   0  0  0  0  0  0  0  0  0  0  0  0
   -2.1679   15.0810   -7.1987 C   0  0  0  0  0  0  0  0  0  0  0  0
   -1.9699   16.5572   -7.5359 C   0  0  0  0  0  0  0  0  0  0  0  0
   -3.5068   17.1945   -5.6691 C   0  0  0  0  0  0  0  0  0  0  0  0
   -3.6982   15.7192   -5.3224 C   0  0  0  0  0  0  0  0  0  0  0  0
   -2.2490   17.3992   -6.3795 N   0  0  0  0  0  0  0  0  0  0  0  0
   -0.7831   12.5607   -3.9294 C   0  0  0  0  0  0  0  0  0  0  0  0
   -0.0831   11.3904   -3.8634 N   0  0  0  0  0  0  0  0  0  0  0  0
   -1.9956   12.5312   -4.1148 O   0  0  0  0  0  0  0  0  0  0  0  0
   -0.6195   10.5394   -3.9751 H   0  0  0  0  0  0  0  0  0  0  0  0
    0.9074   11.3084   -3.7057 H   0  0  0  0  0  0  0  0  0  0  0  0
 18 19  1  0  0  0
 19 20  1  0  0  0
 20 23  1  0  0  0
 21 23  1  0  0  0
 21 22  1  0  0  0
 22 18  1  0  0  0
  2 11  2  0  0  0
  2 14  1  0  0  0
  3 12  2  0  0  0
  4  5  1  0  0  0
  4  1  2  0  0  0
  6 13  1  0  0  0
  6  7  2  0  0  0
  8  9  2  0  0  0
  9 24  1  0  0  0
 10  5  2  0  0  0
 24 25  1  0  0  0
 23  1  1  0  0  0
 13  3  1  0  0  0
  1 11  1  0  0  0
  2 12  1  0  0  0
  3  4  1  0  0  0
  5  6  1  0  0  0
  7  8  1  0  0  0
  9 10  1  0  0  0
 24 26  2  0  0  0
 13 15  1  0  0  0
 25 27  1  0  0  0
 25 28  1  0  0  0
 14 16  1  0  0  0
 14 17  1  0  0  0
M  END
> <minimizedAffinity>
-9.47608

$$$$
CHEMBL3717493


 28 31  0  0  0  0  0  0  0  0999 V2000
   -2.1391   17.7787   -6.3081 C   0  0  0  0  0  0  0  0  0  0  0  0
   -1.3301   19.9724   -6.1038 C   0  0  0  0  0  0  0  0  0  0  0  0
   -0.2455   18.3782   -5.0040 C   0  0  0  0  0  0  0  0  0  0  0  0
   -1.1107   17.3831   -5.4239 C   0  0  0  0  0  0  0  0  0  0  0  0
   -0.6916   16.1811   -4.7581 C   0  0  0  0  0  0  0  0  0  0  0  0
    0.4620   16.4776   -4.0284 C   0  0  0  0  0  0  0  0  0  0  0  0
    1.1609   15.5163   -3.2882 C   0  0  0  0  0  0  0  0  0  0  0  0
    0.6725   14.2014   -3.2926 C   0  0  0  0  0  0  0  0  0  0  0  0
   -0.4931   13.8660   -3.9868 C   0  0  0  0  0  0  0  0  0  0  0  0
   -1.1858   14.8614   -4.6945 C   0  0  0  0  0  0  0  0  0  0  0  0
   -2.2309   19.1078   -6.5938 N   0  0  0  0  0  0  0  0  0  0  0  0
   -0.2935   19.6785   -5.3143 N   0  0  0  0  0  0  0  0  0  0  0  0
    0.7022   17.8210   -4.1945 N   0  0  0  0  0  0  0  0  0  0  0  0
   -1.4872   21.2847   -6.4497 N   0  0  0  0  0  0  0  0  0  0  0  0
    1.4528   18.3454   -3.7719 H   0  0  0  0  0  0  0  0  0  0  0  0
   -0.8240   21.9508   -6.0980 H   0  0  0  0  0  0  0  0  0  0  0  0
   -2.2584   21.5166   -7.0497 H   0  0  0  0  0  0  0  0  0  0  0  0
   -4.0131   14.2056   -6.8684 C   0  0  0  0  0  0  0  0  0  0  0  0
   -2.6657   14.5641   -7.4913 C   0  0  0  0  0  0  0  0  0  0  0  0
   -2.6367   16.0224   -7.9435 C   0  0  0  0  0  0  0  0  0  0  0  0
   -4.3067   16.6083   -6.1769 C   0  0  0  0  0  0  0  0  0  0  0  0
   -4.3296   15.1524   -5.7150 C   0  0  0  0  0  0  0  0  0  0  0  0
   -3.0581   16.9113   -6.8681 N   0  0  0  0  0  0  0  0  0  0  0  0
   -1.0523   12.4839   -4.0509 C   0  0  0  0  0  0  0  0  0  0  0  0
   -2.3668   12.3171   -4.3796 N   0  0  0  0  0  0  0  0  0  0  0  0
   -0.3604   11.5008   -3.8049 O   0  0  0  0  0  0  0  0  0  0  0  0
   -2.7067   11.3640   -4.4019 H   0  0  0  0  0  0  0  0  0  0  0  0
   -3.0120   13.0552   -4.6070 H   0  0  0  0  0  0  0  0  0  0  0  0
 18 19  1  0  0  0
 19 20  1  0  0  0
 20 23  1  0  0  0
 21 23  1  0  0  0
 21 22  1  0  0  0
 22 18  1  0  0  0
  2 11  2  0  0  0
  2 14  1  0  0  0
  3 12  2  0  0  0
  4  5  1  0  0  0
  4  1  2  0  0  0
  6 13  1  0  0  0
  6  7  2  0  0  0
  8  9  2  0  0  0
  9 24  1  0  0  0
 10  5  2  0  0  0
 24 25  1  0  0  0
 23  1  1  0  0  0
 13  3  1  0  0  0
  1 11  1  0  0  0
  2 12  1  0  0  0
  3  4  1  0  0  0
  5  6  1  0  0  0
  7  8  1  0  0  0
  9 10  1  0  0  0
 24 26  2  0  0  0
 13 15  1  0  0  0
 25 27  1  0  0  0
 25 28  1  0  0  0
 14 16  1  0  0  0
 14 17  1  0  0  0
M  END
> <minimizedAffinity>
-9.19669

$$$$
CHEMBL3717493


 28 31  0  0  0  0  0  0  0  0999 V2000
   -1.4478   15.0055   -5.0325 C   0  0  0  0  0  0  0  0  0  0  0  0
   -0.9963   12.7675   -4.4885 C   0  0  0  0  0  0  0  0  0  0  0  0
    0.3722   14.3124   -3.6712 C   0  0  0  0  0  0  0  0  0  0  0  0
   -0.2955   15.3532   -4.2927 C   0  0  0  0  0  0  0  0  0  0  0  0
    0.4597   16.5411   -4.0061 C   0  0  0  0  0  0  0  0  0  0  0  0
    1.5064   16.1856   -3.1520 C   0  0  0  0  0  0  0  0  0  0  0  0
    2.4185   17.1162   -2.6398 C   0  0  0  0  0  0  0  0  0  0  0  0
    2.2592   18.4612   -3.0049 C   0  0  0  0  0  0  0  0  0  0  0  0
    1.2426   18.8572   -3.8781 C   0  0  0  0  0  0  0  0  0  0  0  0
    0.3634   17.8931   -4.3968 C   0  0  0  0  0  0  0  0  0  0  0  0
   -1.7408   13.6786   -5.1324 N   0  0  0  0  0  0  0  0  0  0  0  0
    0.0688   13.0105   -3.7198 N   0  0  0  0  0  0  0  0  0  0  0  0
    1.4280   14.8247   -2.9735 N   0  0  0  0  0  0  0  0  0  0  0  0
   -1.3665   11.4602   -4.6310 N   0  0  0  0  0  0  0  0  0  0  0  0
    2.0610   14.2615   -2.4267 H   0  0  0  0  0  0  0  0  0  0  0  0
   -0.8269   10.7597   -4.1564 H   0  0  0  0  0  0  0  0  0  0  0  0
   -2.1709   11.2659   -5.2000 H   0  0  0  0  0  0  0  0  0  0  0  0
   -4.5122   16.2060   -7.4328 C   0  0  0  0  0  0  0  0  0  0  0  0
   -3.1573   15.7357   -7.9574 C   0  0  0  0  0  0  0  0  0  0  0  0
   -2.0180   16.2376   -7.0730 C   0  0  0  0  0  0  0  0  0  0  0  0
   -3.5590   16.2796   -5.1040 C   0  0  0  0  0  0  0  0  0  0  0  0
   -4.6978   15.7672   -5.9837 C   0  0  0  0  0  0  0  0  0  0  0  0
   -2.2647   15.9187   -5.6724 N   0  0  0  0  0  0  0  0  0  0  0  0
    1.0047   20.2725   -4.2874 C   0  0  0  0  0  0  0  0  0  0  0  0
    0.4435   21.1350   -3.3901 N   0  0  0  0  0  0  0  0  0  0  0  0
    1.2922   20.6712   -5.4117 O   0  0  0  0  0  0  0  0  0  0  0  0
    0.2913   22.0822   -3.7125 H   0  0  0  0  0  0  0  0  0  0  0  0
    0.1821   20.9088   -2.4450 H   0  0  0  0  0  0  0  0  0  0  0  0
 18 19  1  0  0  0
 19 20  1  0  0  0
 20 23  1  0  0  0
 21 23  1  0  0  0
 21 22  1  0  0  0
 22 18  1  0  0  0
  2 11  2  0  0  0
  2 14  1  0  0  0
  3 12  2  0  0  0
  4  5  1  0  0  0
  4  1  2  0  0  0
  6 13  1  0  0  0
  6  7  2  0  0  0
  8  9  2  0  0  0
  9 24  1  0  0  0
 10  5  2  0  0  0
 24 25  1  0  0  0
 23  1  1  0  0  0
 13  3  1  0  0  0
  1 11  1  0  0  0
  2 12  1  0  0  0
  3  4  1  0  0  0
  5  6  1  0  0  0
  7  8  1  0  0  0
  9 10  1  0  0  0
 24 26  2  0  0  0
 13 15  1  0  0  0
 25 27  1  0  0  0
 25 28  1  0  0  0
 14 16  1  0  0  0
 14 17  1  0  0  0
M  END
> <minimizedAffinity>
-9.13321

$$$$
CHEMBL3717493


 28 31  0  0  0  0  0  0  0  0999 V2000
   -3.0411   16.6724   -5.7978 C   0  0  0  0  0  0  0  0  0  0  0  0
   -4.8967   15.9734   -7.0534 C   0  0  0  0  0  0  0  0  0  0  0  0
   -3.6362   14.3963   -6.1308 C   0  0  0  0  0  0  0  0  0  0  0  0
   -2.7450   15.3066   -5.5903 C   0  0  0  0  0  0  0  0  0  0  0  0
   -1.7040   14.5309   -4.9755 C   0  0  0  0  0  0  0  0  0  0  0  0
   -2.0499   13.1827   -5.0937 C   0  0  0  0  0  0  0  0  0  0  0  0
   -1.2696   12.1486   -4.5626 C   0  0  0  0  0  0  0  0  0  0  0  0
   -0.0944   12.4968   -3.8804 C   0  0  0  0  0  0  0  0  0  0  0  0
    0.3037   13.8310   -3.7617 C   0  0  0  0  0  0  0  0  0  0  0  0
   -0.4874   14.8411   -4.3323 C   0  0  0  0  0  0  0  0  0  0  0  0
   -4.1218   16.9589   -6.5766 N   0  0  0  0  0  0  0  0  0  0  0  0
   -4.7280   14.6631   -6.8563 N   0  0  0  0  0  0  0  0  0  0  0  0
   -3.2252   13.1357   -5.8054 N   0  0  0  0  0  0  0  0  0  0  0  0
   -5.9676   16.3481   -7.8145 N   0  0  0  0  0  0  0  0  0  0  0  0
   -3.7200   12.3002   -6.0776 H   0  0  0  0  0  0  0  0  0  0  0  0
   -6.5645   15.6290   -8.1803 H   0  0  0  0  0  0  0  0  0  0  0  0
   -6.1094   17.3311   -7.9628 H   0  0  0  0  0  0  0  0  0  0  0  0
   -0.3202   19.7015   -5.9186 C   0  0  0  0  0  0  0  0  0  0  0  0
    0.0569   18.2258   -5.8076 C   0  0  0  0  0  0  0  0  0  0  0  0
   -0.9096   17.4759   -4.8934 C   0  0  0  0  0  0  0  0  0  0  0  0
   -2.7231   19.0971   -5.4733 C   0  0  0  0  0  0  0  0  0  0  0  0
   -1.7618   19.8429   -6.3969 C   0  0  0  0  0  0  0  0  0  0  0  0
   -2.2925   17.7157   -5.2862 N   0  0  0  0  0  0  0  0  0  0  0  0
    1.5283   14.2698   -3.0302 C   0  0  0  0  0  0  0  0  0  0  0  0
    1.7172   15.6015   -2.7963 N   0  0  0  0  0  0  0  0  0  0  0  0
    2.3690   13.4626   -2.6465 O   0  0  0  0  0  0  0  0  0  0  0  0
    2.5653   15.8554   -2.3057 H   0  0  0  0  0  0  0  0  0  0  0  0
    1.0848   16.3382   -3.0610 H   0  0  0  0  0  0  0  0  0  0  0  0
 18 19  1  0  0  0
 19 20  1  0  0  0
 20 23  1  0  0  0
 21 23  1  0  0  0
 21 22  1  0  0  0
 22 18  1  0  0  0
  2 11  2  0  0  0
  2 14  1  0  0  0
  3 12  2  0  0  0
  4  5  1  0  0  0
  4  1  2  0  0  0
  6 13  1  0  0  0
  6  7  2  0  0  0
  8  9  2  0  0  0
  9 24  1  0  0  0
 10  5  2  0  0  0
 24 25  1  0  0  0
 23  1  1  0  0  0
 13  3  1  0  0  0
  1 11  1  0  0  0
  2 12  1  0  0  0
  3  4  1  0  0  0
  5  6  1  0  0  0
  7  8  1  0  0  0
  9 10  1  0  0  0
 24 26  2  0  0  0
 13 15  1  0  0  0
 25 27  1  0  0  0
 25 28  1  0  0  0
 14 16  1  0  0  0
 14 17  1  0  0  0
M  END
> <minimizedAffinity>
-8.43043

$$$$
CHEMBL3717493


 28 31  0  0  0  0  0  0  0  0999 V2000
   -0.3053   15.6350   -4.0652 C   0  0  0  0  0  0  0  0  0  0  0  0
    1.0797   13.8829   -3.3437 C   0  0  0  0  0  0  0  0  0  0  0  0
   -0.8218   13.3331   -4.3484 C   0  0  0  0  0  0  0  0  0  0  0  0
   -1.2154   14.6500   -4.5095 C   0  0  0  0  0  0  0  0  0  0  0  0
   -2.5317   14.6070   -5.0831 C   0  0  0  0  0  0  0  0  0  0  0  0
   -2.8480   13.2682   -5.3256 C   0  0  0  0  0  0  0  0  0  0  0  0
   -4.0498   12.8672   -5.9218 C   0  0  0  0  0  0  0  0  0  0  0  0
   -4.9644   13.8647   -6.2909 C   0  0  0  0  0  0  0  0  0  0  0  0
   -4.7007   15.2144   -6.0427 C   0  0  0  0  0  0  0  0  0  0  0  0
   -3.4984   15.5791   -5.4157 C   0  0  0  0  0  0  0  0  0  0  0  0
    0.8274   15.1961   -3.4480 N   0  0  0  0  0  0  0  0  0  0  0  0
    0.3084   12.8872   -3.7887 N   0  0  0  0  0  0  0  0  0  0  0  0
   -1.7912   12.5207   -4.8625 N   0  0  0  0  0  0  0  0  0  0  0  0
    2.2438   13.5287   -2.7225 N   0  0  0  0  0  0  0  0  0  0  0  0
   -1.7281   11.5143   -4.8719 H   0  0  0  0  0  0  0  0  0  0  0  0
    2.4567   12.5519   -2.6349 H   0  0  0  0  0  0  0  0  0  0  0  0
    2.8359   14.2690   -2.3910 H   0  0  0  0  0  0  0  0  0  0  0  0
    0.5369   19.4139   -5.3314 C   0  0  0  0  0  0  0  0  0  0  0  0
    1.2169   18.7476   -4.1374 C   0  0  0  0  0  0  0  0  0  0  0  0
    0.2242   17.9127   -3.3314 C   0  0  0  0  0  0  0  0  0  0  0  0
   -1.1416   17.5388   -5.3924 C   0  0  0  0  0  0  0  0  0  0  0  0
   -0.1446   18.3643   -6.2035 C   0  0  0  0  0  0  0  0  0  0  0  0
   -0.5093   16.9959   -4.1949 N   0  0  0  0  0  0  0  0  0  0  0  0
   -5.6195   16.3245   -6.4305 C   0  0  0  0  0  0  0  0  0  0  0  0
   -6.0118   16.4335   -7.7337 N   0  0  0  0  0  0  0  0  0  0  0  0
   -6.0186   17.1427   -5.6079 O   0  0  0  0  0  0  0  0  0  0  0  0
   -6.6272   17.2061   -7.9543 H   0  0  0  0  0  0  0  0  0  0  0  0
   -5.7486   15.8102   -8.4786 H   0  0  0  0  0  0  0  0  0  0  0  0
 18 19  1  0  0  0
 19 20  1  0  0  0
 20 23  1  0  0  0
 21 23  1  0  0  0
 21 22  1  0  0  0
 22 18  1  0  0  0
  2 11  2  0  0  0
  2 14  1  0  0  0
  3 12  2  0  0  0
  4  5  1  0  0  0
  4  1  2  0  0  0
  6 13  1  0  0  0
  6  7  2  0  0  0
  8  9  2  0  0  0
  9 24  1  0  0  0
 10  5  2  0  0  0
 24 25  1  0  0  0
 23  1  1  0  0  0
 13  3  1  0  0  0
  1 11  1  0  0  0
  2 12  1  0  0  0
  3  4  1  0  0  0
  5  6  1  0  0  0
  7  8  1  0  0  0
  9 10  1  0  0  0
 24 26  2  0  0  0
 13 15  1  0  0  0
 25 27  1  0  0  0
 25 28  1  0  0  0
 14 16  1  0  0  0
 14 17  1  0  0  0
M  END
> <minimizedAffinity>
-8.25812

$$$$
CHEMBL3717493


 28 31  0  0  0  0  0  0  0  0999 V2000
   -3.1395   12.6884   -5.5231 C   0  0  0  0  0  0  0  0  0  0  0  0
   -5.0558   11.3512   -5.3041 C   0  0  0  0  0  0  0  0  0  0  0  0
   -5.3410   13.4345   -6.0156 C   0  0  0  0  0  0  0  0  0  0  0  0
   -3.9941   13.7392   -5.9249 C   0  0  0  0  0  0  0  0  0  0  0  0
   -3.8760   15.1327   -6.2533 C   0  0  0  0  0  0  0  0  0  0  0  0
   -5.1441   15.5954   -6.6126 C   0  0  0  0  0  0  0  0  0  0  0  0
   -5.3827   16.9099   -7.0316 C   0  0  0  0  0  0  0  0  0  0  0  0
   -4.2906   17.7880   -7.0930 C   0  0  0  0  0  0  0  0  0  0  0  0
   -3.0095   17.3750   -6.7172 C   0  0  0  0  0  0  0  0  0  0  0  0
   -2.8112   16.0578   -6.2732 C   0  0  0  0  0  0  0  0  0  0  0  0
   -3.7291   11.5078   -5.1841 N   0  0  0  0  0  0  0  0  0  0  0  0
   -5.9290   12.2667   -5.7330 N   0  0  0  0  0  0  0  0  0  0  0  0
   -6.0115   14.5410   -6.4515 N   0  0  0  0  0  0  0  0  0  0  0  0
   -5.5643   10.1321   -4.9555 N   0  0  0  0  0  0  0  0  0  0  0  0
   -7.0075   14.5641   -6.6072 H   0  0  0  0  0  0  0  0  0  0  0  0
   -6.5541    9.9891   -5.0396 H   0  0  0  0  0  0  0  0  0  0  0  0
   -4.9163    9.4330   -4.6394 H   0  0  0  0  0  0  0  0  0  0  0  0
    0.4602   12.7743   -3.6183 C   0  0  0  0  0  0  0  0  0  0  0  0
   -0.5043   13.9575   -3.6640 C   0  0  0  0  0  0  0  0  0  0  0  0
   -1.1759   14.0701   -5.0309 C   0  0  0  0  0  0  0  0  0  0  0  0
   -0.9300   11.6035   -5.3601 C   0  0  0  0  0  0  0  0  0  0  0  0
   -0.2677   11.4859   -3.9886 C   0  0  0  0  0  0  0  0  0  0  0  0
   -1.7648   12.7980   -5.4300 N   0  0  0  0  0  0  0  0  0  0  0  0
   -1.8031   18.2511   -6.7809 C   0  0  0  0  0  0  0  0  0  0  0  0
   -1.9243   19.5062   -7.3043 N   0  0  0  0  0  0  0  0  0  0  0  0
   -0.7085   17.8639   -6.3841 O   0  0  0  0  0  0  0  0  0  0  0  0
   -1.0795   20.0626   -7.3371 H   0  0  0  0  0  0  0  0  0  0  0  0
   -2.7762   19.9185   -7.6462 H   0  0  0  0  0  0  0  0  0  0  0  0
 18 19  1  0  0  0
 19 20  1  0  0  0
 20 23  1  0  0  0
 21 23  1  0  0  0
 21 22  1  0  0  0
 22 18  1  0  0  0
  2 11  2  0  0  0
  2 14  1  0  0  0
  3 12  2  0  0  0
  4  5  1  0  0  0
  4  1  2  0  0  0
  6 13  1  0  0  0
  6  7  2  0  0  0
  8  9  2  0  0  0
  9 24  1  0  0  0
 10  5  2  0  0  0
 24 25  1  0  0  0
 23  1  1  0  0  0
 13  3  1  0  0  0
  1 11  1  0  0  0
  2 12  1  0  0  0
  3  4  1  0  0  0
  5  6  1  0  0  0
  7  8  1  0  0  0
  9 10  1  0  0  0
 24 26  2  0  0  0
 13 15  1  0  0  0
 25 27  1  0  0  0
 25 28  1  0  0  0
 14 16  1  0  0  0
 14 17  1  0  0  0
M  END
> <minimizedAffinity>
-8.21072

$$$$
CHEMBL3717493


 28 31  0  0  0  0  0  0  0  0999 V2000
   -0.5646   15.5550   -4.5768 C   0  0  0  0  0  0  0  0  0  0  0  0
    1.2214   14.7842   -3.2637 C   0  0  0  0  0  0  0  0  0  0  0  0
    1.1411   16.9588   -3.7017 C   0  0  0  0  0  0  0  0  0  0  0  0
   -0.0001   16.8463   -4.4764 C   0  0  0  0  0  0  0  0  0  0  0  0
   -0.2556   18.1571   -5.0056 C   0  0  0  0  0  0  0  0  0  0  0  0
    0.6911   19.0287   -4.4620 C   0  0  0  0  0  0  0  0  0  0  0  0
    0.7063   20.4015   -4.7369 C   0  0  0  0  0  0  0  0  0  0  0  0
   -0.2812   20.9105   -5.5933 C   0  0  0  0  0  0  0  0  0  0  0  0
   -1.2312   20.0706   -6.1805 C   0  0  0  0  0  0  0  0  0  0  0  0
   -1.1991   18.6939   -5.9065 C   0  0  0  0  0  0  0  0  0  0  0  0
    0.1115   14.5367   -3.9749 N   0  0  0  0  0  0  0  0  0  0  0  0
    1.7890   15.9769   -3.0649 N   0  0  0  0  0  0  0  0  0  0  0  0
    1.5275   18.2681   -3.6797 N   0  0  0  0  0  0  0  0  0  0  0  0
    1.8306   13.7086   -2.6819 N   0  0  0  0  0  0  0  0  0  0  0  0
    2.3301   18.6041   -3.1700 H   0  0  0  0  0  0  0  0  0  0  0  0
    2.6612   13.8684   -2.1418 H   0  0  0  0  0  0  0  0  0  0  0  0
    1.4083   12.8076   -2.8176 H   0  0  0  0  0  0  0  0  0  0  0  0
   -3.7096   16.3325   -7.0462 C   0  0  0  0  0  0  0  0  0  0  0  0
   -3.6480   16.7741   -5.5856 C   0  0  0  0  0  0  0  0  0  0  0  0
   -3.0076   15.6992   -4.7100 C   0  0  0  0  0  0  0  0  0  0  0  0
   -1.6851   14.8844   -6.6697 C   0  0  0  0  0  0  0  0  0  0  0  0
   -2.3157   15.9656   -7.5454 C   0  0  0  0  0  0  0  0  0  0  0  0
   -1.7298   15.2681   -5.2628 N   0  0  0  0  0  0  0  0  0  0  0  0
   -2.3203   20.5510   -7.0806 C   0  0  0  0  0  0  0  0  0  0  0  0
   -2.9142   19.6639   -7.9317 N   0  0  0  0  0  0  0  0  0  0  0  0
   -2.6831   21.7231   -7.0783 O   0  0  0  0  0  0  0  0  0  0  0  0
   -3.6411   20.0341   -8.5307 H   0  0  0  0  0  0  0  0  0  0  0  0
   -2.6958   18.6841   -8.0025 H   0  0  0  0  0  0  0  0  0  0  0  0
 18 19  1  0  0  0
 19 20  1  0  0  0
 20 23  1  0  0  0
 21 23  1  0  0  0
 21 22  1  0  0  0
 22 18  1  0  0  0
  2 11  2  0  0  0
  2 14  1  0  0  0
  3 12  2  0  0  0
  4  5  1  0  0  0
  4  1  2  0  0  0
  6 13  1  0  0  0
  6  7  2  0  0  0
  8  9  2  0  0  0
  9 24  1  0  0  0
 10  5  2  0  0  0
 24 25  1  0  0  0
 23  1  1  0  0  0
 13  3  1  0  0  0
  1 11  1  0  0  0
  2 12  1  0  0  0
  3  4  1  0  0  0
  5  6  1  0  0  0
  7  8  1  0  0  0
  9 10  1  0  0  0
 24 26  2  0  0  0
 13 15  1  0  0  0
 25 27  1  0  0  0
 25 28  1  0  0  0
 14 16  1  0  0  0
 14 17  1  0  0  0
M  END
> <minimizedAffinity>
-8.09073

$$$$
CHEMBL3716812


 26 29  0  0  0  0  0  0  0  0999 V2000
   -3.3676   13.6422   -5.5573 N   0  0  0  0  0  0  0  0  0  0  0  0
   -1.8607   11.9625   -4.7120 N   0  0  0  0  0  0  0  0  0  0  0  0
    0.1351   12.8696   -3.7632 N   0  0  0  0  0  0  0  0  0  0  0  0
   -3.0117   12.3681   -5.2792 C   0  0  0  0  0  0  0  0  0  0  0  0
   -1.0797   12.9961   -4.3739 C   0  0  0  0  0  0  0  0  0  0  0  0
   -1.3344   14.3422   -4.5707 C   0  0  0  0  0  0  0  0  0  0  0  0
   -2.5338   14.6688   -5.2370 C   0  0  0  0  0  0  0  0  0  0  0  0
   -0.2399   15.0528   -3.9755 C   0  0  0  0  0  0  0  0  0  0  0  0
    0.6791   14.1080   -3.5138 C   0  0  0  0  0  0  0  0  0  0  0  0
    1.8935   14.4618   -2.9153 C   0  0  0  0  0  0  0  0  0  0  0  0
    2.1878   15.8277   -2.7892 C   0  0  0  0  0  0  0  0  0  0  0  0
    1.2844   16.8066   -3.2154 C   0  0  0  0  0  0  0  0  0  0  0  0
    0.0597   16.4177   -3.7813 C   0  0  0  0  0  0  0  0  0  0  0  0
   -3.9760   11.2952   -5.6857 C   0  0  0  0  0  0  0  0  0  0  0  0
    0.5497   11.9818   -3.5255 H   0  0  0  0  0  0  0  0  0  0  0  0
   -2.8894   15.9668   -5.5786 N   0  0  0  0  0  0  0  0  0  0  0  0
   -2.9511   16.2585   -7.0112 C   0  0  0  0  0  0  0  0  0  0  0  0
   -3.4686   17.6757   -7.2311 C   0  0  0  0  0  0  0  0  0  0  0  0
   -4.8888   17.8055   -6.6883 C   0  0  0  0  0  0  0  0  0  0  0  0
   -5.0839   17.0806   -5.3521 C   0  0  0  0  0  0  0  0  0  0  0  0
   -3.7698   16.7008   -4.6723 C   0  0  0  0  0  0  0  0  0  0  0  0
    0.5651   19.1463   -3.4824 N   0  0  0  0  0  0  0  0  0  0  0  0
    1.5553   18.2720   -3.1370 C   0  0  0  0  0  0  0  0  0  0  0  0
    2.6393   18.7051   -2.7587 O   0  0  0  0  0  0  0  0  0  0  0  0
    0.7872   20.1304   -3.4018 H   0  0  0  0  0  0  0  0  0  0  0  0
   -0.3503   18.8931   -3.8148 H   0  0  0  0  0  0  0  0  0  0  0  0
  3  5  1  0  0  0
  4  2  2  0  0  0
  5  6  2  0  0  0
  6  8  1  0  0  0
  7 16  1  0  0  0
  7  1  2  0  0  0
 17 16  1  0  0  0
 17 18  1  0  0  0
 18 19  1  0  0  0
 19 20  1  0  0  0
 20 21  1  0  0  0
 21 16  1  0  0  0
  9  3  1  0  0  0
  9 10  2  0  0  0
 11 12  2  0  0  0
 12 23  1  0  0  0
 13  8  2  0  0  0
 23 22  1  0  0  0
 14  4  1  0  0  0
  4  1  1  0  0  0
  5  2  1  0  0  0
  6  7  1  0  0  0
  8  9  1  0  0  0
 10 11  1  0  0  0
 12 13  1  0  0  0
 23 24  2  0  0  0
  3 15  1  0  0  0
 22 25  1  0  0  0
 22 26  1  0  0  0
M  END
> <minimizedAffinity>
-10.05760

$$$$
CHEMBL3716812


 26 29  0  0  0  0  0  0  0  0999 V2000
   -0.5232   18.4236   -4.8225 N   0  0  0  0  0  0  0  0  0  0  0  0
    1.1362   17.2829   -3.4989 N   0  0  0  0  0  0  0  0  0  0  0  0
    0.7711   14.9272   -3.3445 N   0  0  0  0  0  0  0  0  0  0  0  0
    0.6054   18.3745   -4.0800 C   0  0  0  0  0  0  0  0  0  0  0  0
    0.4403   16.1761   -3.7871 C   0  0  0  0  0  0  0  0  0  0  0  0
   -0.7070   16.0801   -4.5553 C   0  0  0  0  0  0  0  0  0  0  0  0
   -1.2305   17.2867   -5.0647 C   0  0  0  0  0  0  0  0  0  0  0  0
   -1.0291   14.6844   -4.6300 C   0  0  0  0  0  0  0  0  0  0  0  0
   -0.1122   13.9938   -3.8346 C   0  0  0  0  0  0  0  0  0  0  0  0
   -0.1659   12.6083   -3.6455 C   0  0  0  0  0  0  0  0  0  0  0  0
   -1.1956   11.9000   -4.2829 C   0  0  0  0  0  0  0  0  0  0  0  0
   -2.1194   12.5491   -5.1082 C   0  0  0  0  0  0  0  0  0  0  0  0
   -2.0171   13.9358   -5.3036 C   0  0  0  0  0  0  0  0  0  0  0  0
    1.3116   19.6746   -3.8408 C   0  0  0  0  0  0  0  0  0  0  0  0
    1.5650   14.7379   -2.7525 H   0  0  0  0  0  0  0  0  0  0  0  0
   -2.4165   17.3625   -5.7826 N   0  0  0  0  0  0  0  0  0  0  0  0
   -2.3857   16.7989   -7.1327 C   0  0  0  0  0  0  0  0  0  0  0  0
   -3.7804   16.8447   -7.7469 C   0  0  0  0  0  0  0  0  0  0  0  0
   -4.7422   15.9883   -6.9283 C   0  0  0  0  0  0  0  0  0  0  0  0
   -4.5280   16.1312   -5.4175 C   0  0  0  0  0  0  0  0  0  0  0  0
   -3.6743   17.3400   -5.0391 C   0  0  0  0  0  0  0  0  0  0  0  0
   -4.4763   12.4620   -5.8157 N   0  0  0  0  0  0  0  0  0  0  0  0
   -3.2535   11.8552   -5.7857 C   0  0  0  0  0  0  0  0  0  0  0  0
   -3.1078   10.7623   -6.3243 O   0  0  0  0  0  0  0  0  0  0  0  0
   -5.2134   11.9626   -6.2968 H   0  0  0  0  0  0  0  0  0  0  0  0
   -4.7009   13.3483   -5.3954 H   0  0  0  0  0  0  0  0  0  0  0  0
  3  5  1  0  0  0
  4  2  2  0  0  0
  5  6  2  0  0  0
  6  8  1  0  0  0
  7 16  1  0  0  0
  7  1  2  0  0  0
 17 16  1  0  0  0
 17 18  1  0  0  0
 18 19  1  0  0  0
 19 20  1  0  0  0
 20 21  1  0  0  0
 21 16  1  0  0  0
  9  3  1  0  0  0
  9 10  2  0  0  0
 11 12  2  0  0  0
 12 23  1  0  0  0
 13  8  2  0  0  0
 23 22  1  0  0  0
 14  4  1  0  0  0
  4  1  1  0  0  0
  5  2  1  0  0  0
  6  7  1  0  0  0
  8  9  1  0  0  0
 10 11  1  0  0  0
 12 13  1  0  0  0
 23 24  2  0  0  0
  3 15  1  0  0  0
 22 25  1  0  0  0
 22 26  1  0  0  0
M  END
> <minimizedAffinity>
-9.43102

$$$$
CHEMBL3716812


 26 29  0  0  0  0  0  0  0  0999 V2000
   -0.9704   14.2022   -4.4138 N   0  0  0  0  0  0  0  0  0  0  0  0
    1.1092   13.6166   -3.3467 N   0  0  0  0  0  0  0  0  0  0  0  0
    2.4428   15.5109   -2.7640 N   0  0  0  0  0  0  0  0  0  0  0  0
   -0.0821   13.3227   -3.8991 C   0  0  0  0  0  0  0  0  0  0  0  0
    1.3231   14.9372   -3.2950 C   0  0  0  0  0  0  0  0  0  0  0  0
    0.4896   15.9426   -3.7532 C   0  0  0  0  0  0  0  0  0  0  0  0
   -0.7059   15.5366   -4.3820 C   0  0  0  0  0  0  0  0  0  0  0  0
    1.1216   17.1825   -3.4060 C   0  0  0  0  0  0  0  0  0  0  0  0
    2.3553   16.8822   -2.8245 C   0  0  0  0  0  0  0  0  0  0  0  0
    3.2563   17.8681   -2.4073 C   0  0  0  0  0  0  0  0  0  0  0  0
    2.8924   19.2098   -2.5963 C   0  0  0  0  0  0  0  0  0  0  0  0
    1.6560   19.5546   -3.1516 C   0  0  0  0  0  0  0  0  0  0  0  0
    0.7607   18.5408   -3.5288 C   0  0  0  0  0  0  0  0  0  0  0  0
   -0.4391   11.8703   -3.9955 C   0  0  0  0  0  0  0  0  0  0  0  0
    3.2086   14.9828   -2.3751 H   0  0  0  0  0  0  0  0  0  0  0  0
   -1.6027   16.4227   -4.9636 N   0  0  0  0  0  0  0  0  0  0  0  0
   -1.8504   16.2376   -6.3939 C   0  0  0  0  0  0  0  0  0  0  0  0
   -2.9389   17.1974   -6.8613 C   0  0  0  0  0  0  0  0  0  0  0  0
   -4.2491   16.8958   -6.1394 C   0  0  0  0  0  0  0  0  0  0  0  0
   -4.0500   16.5735   -4.6543 C   0  0  0  0  0  0  0  0  0  0  0  0
   -2.6710   16.9682   -4.1291 C   0  0  0  0  0  0  0  0  0  0  0  0
    0.4812   21.6058   -2.4621 N   0  0  0  0  0  0  0  0  0  0  0  0
    1.2274   20.9610   -3.4065 C   0  0  0  0  0  0  0  0  0  0  0  0
    1.5405   21.5511   -4.4358 O   0  0  0  0  0  0  0  0  0  0  0  0
    0.2238   22.5623   -2.6698 H   0  0  0  0  0  0  0  0  0  0  0  0
    0.1640   21.2078   -1.5940 H   0  0  0  0  0  0  0  0  0  0  0  0
  3  5  1  0  0  0
  4  2  2  0  0  0
  5  6  2  0  0  0
  6  8  1  0  0  0
  7 16  1  0  0  0
  7  1  2  0  0  0
 17 16  1  0  0  0
 17 18  1  0  0  0
 18 19  1  0  0  0
 19 20  1  0  0  0
 20 21  1  0  0  0
 21 16  1  0  0  0
  9  3  1  0  0  0
  9 10  2  0  0  0
 11 12  2  0  0  0
 12 23  1  0  0  0
 13  8  2  0  0  0
 23 22  1  0  0  0
 14  4  1  0  0  0
  4  1  1  0  0  0
  5  2  1  0  0  0
  6  7  1  0  0  0
  8  9  1  0  0  0
 10 11  1  0  0  0
 12 13  1  0  0  0
 23 24  2  0  0  0
  3 15  1  0  0  0
 22 25  1  0  0  0
 22 26  1  0  0  0
M  END
> <minimizedAffinity>
-9.27905

$$$$
CHEMBL3716812


 26 29  0  0  0  0  0  0  0  0999 V2000
   -1.3901   19.1606   -5.6753 N   0  0  0  0  0  0  0  0  0  0  0  0
    0.7489   19.4895   -4.6157 N   0  0  0  0  0  0  0  0  0  0  0  0
    1.6586   17.4913   -3.6744 N   0  0  0  0  0  0  0  0  0  0  0  0
   -0.3236   19.9078   -5.3125 C   0  0  0  0  0  0  0  0  0  0  0  0
    0.6908   18.1787   -4.3496 C   0  0  0  0  0  0  0  0  0  0  0  0
   -0.3202   17.2960   -4.6875 C   0  0  0  0  0  0  0  0  0  0  0  0
   -1.4377   17.8389   -5.3550 C   0  0  0  0  0  0  0  0  0  0  0  0
    0.1109   15.9997   -4.2504 C   0  0  0  0  0  0  0  0  0  0  0  0
    1.3304   16.1584   -3.5887 C   0  0  0  0  0  0  0  0  0  0  0  0
    2.0132   15.0924   -2.9924 C   0  0  0  0  0  0  0  0  0  0  0  0
    1.4295   13.8187   -3.0648 C   0  0  0  0  0  0  0  0  0  0  0  0
    0.2221   13.6115   -3.7394 C   0  0  0  0  0  0  0  0  0  0  0  0
   -0.4205   14.6971   -4.3559 C   0  0  0  0  0  0  0  0  0  0  0  0
   -0.3607   21.3595   -5.6833 C   0  0  0  0  0  0  0  0  0  0  0  0
    2.4953   17.9199   -3.3101 H   0  0  0  0  0  0  0  0  0  0  0  0
   -2.5642   17.0980   -5.6867 N   0  0  0  0  0  0  0  0  0  0  0  0
   -3.6046   17.0192   -4.6607 C   0  0  0  0  0  0  0  0  0  0  0  0
   -4.8209   16.2817   -5.2095 C   0  0  0  0  0  0  0  0  0  0  0  0
   -5.4133   17.0508   -6.3867 C   0  0  0  0  0  0  0  0  0  0  0  0
   -4.3431   17.6324   -7.3169 C   0  0  0  0  0  0  0  0  0  0  0  0
   -2.9561   17.0329   -7.0929 C   0  0  0  0  0  0  0  0  0  0  0  0
    0.2784   11.1506   -3.6735 N   0  0  0  0  0  0  0  0  0  0  0  0
   -0.4623   12.2880   -3.8221 C   0  0  0  0  0  0  0  0  0  0  0  0
   -1.6722   12.2014   -4.0074 O   0  0  0  0  0  0  0  0  0  0  0  0
   -0.2278   10.2757   -3.7233 H   0  0  0  0  0  0  0  0  0  0  0  0
    1.2738   11.1144   -3.5301 H   0  0  0  0  0  0  0  0  0  0  0  0
  3  5  1  0  0  0
  4  2  2  0  0  0
  5  6  2  0  0  0
  6  8  1  0  0  0
  7 16  1  0  0  0
  7  1  2  0  0  0
 17 16  1  0  0  0
 17 18  1  0  0  0
 18 19  1  0  0  0
 19 20  1  0  0  0
 20 21  1  0  0  0
 21 16  1  0  0  0
  9  3  1  0  0  0
  9 10  2  0  0  0
 11 12  2  0  0  0
 12 23  1  0  0  0
 13  8  2  0  0  0
 23 22  1  0  0  0
 14  4  1  0  0  0
  4  1  1  0  0  0
  5  2  1  0  0  0
  6  7  1  0  0  0
  8  9  1  0  0  0
 10 11  1  0  0  0
 12 13  1  0  0  0
 23 24  2  0  0  0
  3 15  1  0  0  0
 22 25  1  0  0  0
 22 26  1  0  0  0
M  END
> <minimizedAffinity>
-9.06069

$$$$
CHEMBL3716812


 26 29  0  0  0  0  0  0  0  0999 V2000
    0.3195   15.3241   -3.7101 N   0  0  0  0  0  0  0  0  0  0  0  0
    0.3957   17.7151   -3.9990 N   0  0  0  0  0  0  0  0  0  0  0  0
   -1.6086   18.6225   -4.9295 N   0  0  0  0  0  0  0  0  0  0  0  0
    0.9095   16.5358   -3.6041 C   0  0  0  0  0  0  0  0  0  0  0  0
   -0.8469   17.5823   -4.4792 C   0  0  0  0  0  0  0  0  0  0  0  0
   -1.5761   16.4136   -4.6136 C   0  0  0  0  0  0  0  0  0  0  0  0
   -0.9294   15.2173   -4.2397 C   0  0  0  0  0  0  0  0  0  0  0  0
   -2.8689   16.7967   -5.1029 C   0  0  0  0  0  0  0  0  0  0  0  0
   -2.8472   18.1750   -5.3263 C   0  0  0  0  0  0  0  0  0  0  0  0
   -3.9395   18.8748   -5.8509 C   0  0  0  0  0  0  0  0  0  0  0  0
   -5.0943   18.1438   -6.1676 C   0  0  0  0  0  0  0  0  0  0  0  0
   -5.1671   16.7665   -5.9362 C   0  0  0  0  0  0  0  0  0  0  0  0
   -4.0647   16.1002   -5.3773 C   0  0  0  0  0  0  0  0  0  0  0  0
    2.2944   16.5630   -3.0318 C   0  0  0  0  0  0  0  0  0  0  0  0
   -1.2910   19.5793   -4.9467 H   0  0  0  0  0  0  0  0  0  0  0  0
   -1.4992   13.9604   -4.3921 N   0  0  0  0  0  0  0  0  0  0  0  0
   -1.8408   13.5732   -5.7613 C   0  0  0  0  0  0  0  0  0  0  0  0
   -2.3402   12.1328   -5.7847 C   0  0  0  0  0  0  0  0  0  0  0  0
   -1.2375   11.1879   -5.3162 C   0  0  0  0  0  0  0  0  0  0  0  0
   -0.4453   11.7409   -4.1265 C   0  0  0  0  0  0  0  0  0  0  0  0
   -1.1326   12.9176   -3.4364 C   0  0  0  0  0  0  0  0  0  0  0  0
   -7.4635   16.5405   -6.7956 N   0  0  0  0  0  0  0  0  0  0  0  0
   -6.3545   15.9316   -6.2820 C   0  0  0  0  0  0  0  0  0  0  0  0
   -6.3505   14.7143   -6.1271 O   0  0  0  0  0  0  0  0  0  0  0  0
   -8.2405   15.9352   -7.0285 H   0  0  0  0  0  0  0  0  0  0  0  0
   -7.5707   17.5292   -6.9492 H   0  0  0  0  0  0  0  0  0  0  0  0
  3  5  1  0  0  0
  4  2  2  0  0  0
  5  6  2  0  0  0
  6  8  1  0  0  0
  7 16  1  0  0  0
  7  1  2  0  0  0
 17 16  1  0  0  0
 17 18  1  0  0  0
 18 19  1  0  0  0
 19 20  1  0  0  0
 20 21  1  0  0  0
 21 16  1  0  0  0
  9  3  1  0  0  0
  9 10  2  0  0  0
 11 12  2  0  0  0
 12 23  1  0  0  0
 13  8  2  0  0  0
 23 22  1  0  0  0
 14  4  1  0  0  0
  4  1  1  0  0  0
  5  2  1  0  0  0
  6  7  1  0  0  0
  8  9  1  0  0  0
 10 11  1  0  0  0
 12 13  1  0  0  0
 23 24  2  0  0  0
  3 15  1  0  0  0
 22 25  1  0  0  0
 22 26  1  0  0  0
M  END
> <minimizedAffinity>
-8.84700

$$$$
CHEMBL3716812


 26 29  0  0  0  0  0  0  0  0999 V2000
   -3.0048   18.7766   -7.0499 N   0  0  0  0  0  0  0  0  0  0  0  0
   -1.7063   20.6104   -6.1794 N   0  0  0  0  0  0  0  0  0  0  0  0
    0.0345   19.9202   -4.6963 N   0  0  0  0  0  0  0  0  0  0  0  0
   -2.6761   20.0841   -6.9496 C   0  0  0  0  0  0  0  0  0  0  0  0
   -1.0171   19.6645   -5.5291 C   0  0  0  0  0  0  0  0  0  0  0  0
   -1.2259   18.2968   -5.5659 C   0  0  0  0  0  0  0  0  0  0  0  0
   -2.3103   17.8426   -6.3449 C   0  0  0  0  0  0  0  0  0  0  0  0
   -0.1913   17.7074   -4.7662 C   0  0  0  0  0  0  0  0  0  0  0  0
    0.5563   18.7457   -4.2063 C   0  0  0  0  0  0  0  0  0  0  0  0
    1.6236   18.5232   -3.3291 C   0  0  0  0  0  0  0  0  0  0  0  0
    1.9370   17.1952   -3.0028 C   0  0  0  0  0  0  0  0  0  0  0  0
    1.2301   16.1252   -3.5606 C   0  0  0  0  0  0  0  0  0  0  0  0
    0.1861   16.3821   -4.4637 C   0  0  0  0  0  0  0  0  0  0  0  0
   -3.5058   21.0498   -7.7403 C   0  0  0  0  0  0  0  0  0  0  0  0
    0.3725   20.8483   -4.4942 H   0  0  0  0  0  0  0  0  0  0  0  0
   -2.6952   16.5105   -6.4163 N   0  0  0  0  0  0  0  0  0  0  0  0
   -1.9012   15.6605   -7.3042 C   0  0  0  0  0  0  0  0  0  0  0  0
   -2.3620   14.2120   -7.1860 C   0  0  0  0  0  0  0  0  0  0  0  0
   -2.1372   13.7045   -5.7646 C   0  0  0  0  0  0  0  0  0  0  0  0
   -2.4908   14.7464   -4.6977 C   0  0  0  0  0  0  0  0  0  0  0  0
   -3.3191   15.9099   -5.2393 C   0  0  0  0  0  0  0  0  0  0  0  0
    0.4488   13.8196   -3.1903 N   0  0  0  0  0  0  0  0  0  0  0  0
    1.4959   14.6951   -3.2273 C   0  0  0  0  0  0  0  0  0  0  0  0
    2.6313   14.2894   -2.9995 O   0  0  0  0  0  0  0  0  0  0  0  0
    0.6758   12.8575   -2.9735 H   0  0  0  0  0  0  0  0  0  0  0  0
   -0.5167   14.0540   -3.3497 H   0  0  0  0  0  0  0  0  0  0  0  0
  3  5  1  0  0  0
  4  2  2  0  0  0
  5  6  2  0  0  0
  6  8  1  0  0  0
  7 16  1  0  0  0
  7  1  2  0  0  0
 17 16  1  0  0  0
 17 18  1  0  0  0
 18 19  1  0  0  0
 19 20  1  0  0  0
 20 21  1  0  0  0
 21 16  1  0  0  0
  9  3  1  0  0  0
  9 10  2  0  0  0
 11 12  2  0  0  0
 12 23  1  0  0  0
 13  8  2  0  0  0
 23 22  1  0  0  0
 14  4  1  0  0  0
  4  1  1  0  0  0
  5  2  1  0  0  0
  6  7  1  0  0  0
  8  9  1  0  0  0
 10 11  1  0  0  0
 12 13  1  0  0  0
 23 24  2  0  0  0
  3 15  1  0  0  0
 22 25  1  0  0  0
 22 26  1  0  0  0
M  END
> <minimizedAffinity>
-8.76419

$$$$
CHEMBL3716812


 26 29  0  0  0  0  0  0  0  0999 V2000
   -3.2946   19.0448   -6.3926 N   0  0  0  0  0  0  0  0  0  0  0  0
   -1.1308   19.7177   -5.5730 N   0  0  0  0  0  0  0  0  0  0  0  0
    0.1050   17.9310   -4.5797 N   0  0  0  0  0  0  0  0  0  0  0  0
   -2.3046   19.9431   -6.1913 C   0  0  0  0  0  0  0  0  0  0  0  0
   -0.9977   18.4370   -5.2065 C   0  0  0  0  0  0  0  0  0  0  0  0
   -1.9134   17.4135   -5.3786 C   0  0  0  0  0  0  0  0  0  0  0  0
   -3.1450   17.7592   -5.9727 C   0  0  0  0  0  0  0  0  0  0  0  0
   -1.2840   16.2205   -4.8910 C   0  0  0  0  0  0  0  0  0  0  0  0
   -0.0416   16.5805   -4.3645 C   0  0  0  0  0  0  0  0  0  0  0  0
    0.8210   15.6591   -3.7603 C   0  0  0  0  0  0  0  0  0  0  0  0
    0.4006   14.3230   -3.6815 C   0  0  0  0  0  0  0  0  0  0  0  0
   -0.8247   13.9153   -4.2185 C   0  0  0  0  0  0  0  0  0  0  0  0
   -1.6519   14.8592   -4.8480 C   0  0  0  0  0  0  0  0  0  0  0  0
   -2.5589   21.3428   -6.6628 C   0  0  0  0  0  0  0  0  0  0  0  0
    0.9087   18.4866   -4.3311 H   0  0  0  0  0  0  0  0  0  0  0  0
   -4.1923   16.8627   -6.1377 N   0  0  0  0  0  0  0  0  0  0  0  0
   -5.1354   16.7662   -5.0230 C   0  0  0  0  0  0  0  0  0  0  0  0
   -6.2882   15.8409   -5.3961 C   0  0  0  0  0  0  0  0  0  0  0  0
   -7.0577   16.4140   -6.5826 C   0  0  0  0  0  0  0  0  0  0  0  0
   -6.1404   17.0203   -7.6503 C   0  0  0  0  0  0  0  0  0  0  0  0
   -4.6769   16.6119   -7.4933 C   0  0  0  0  0  0  0  0  0  0  0  0
   -0.4603   11.5034   -3.8826 N   0  0  0  0  0  0  0  0  0  0  0  0
   -1.3392   12.5170   -4.1365 C   0  0  0  0  0  0  0  0  0  0  0  0
   -2.5309   12.2620   -4.2792 O   0  0  0  0  0  0  0  0  0  0  0  0
   -0.8537   10.5729   -3.8221 H   0  0  0  0  0  0  0  0  0  0  0  0
    0.5335   11.6061   -3.7623 H   0  0  0  0  0  0  0  0  0  0  0  0
  3  5  1  0  0  0
  4  2  2  0  0  0
  5  6  2  0  0  0
  6  8  1  0  0  0
  7 16  1  0  0  0
  7  1  2  0  0  0
 17 16  1  0  0  0
 17 18  1  0  0  0
 18 19  1  0  0  0
 19 20  1  0  0  0
 20 21  1  0  0  0
 21 16  1  0  0  0
  9  3  1  0  0  0
  9 10  2  0  0  0
 11 12  2  0  0  0
 12 23  1  0  0  0
 13  8  2  0  0  0
 23 22  1  0  0  0
 14  4  1  0  0  0
  4  1  1  0  0  0
  5  2  1  0  0  0
  6  7  1  0  0  0
  8  9  1  0  0  0
 10 11  1  0  0  0
 12 13  1  0  0  0
 23 24  2  0  0  0
  3 15  1  0  0  0
 22 25  1  0  0  0
 22 26  1  0  0  0
M  END
> <minimizedAffinity>
-8.57722

$$$$
CHEMBL3716812


 26 29  0  0  0  0  0  0  0  0999 V2000
    0.7419   15.2507   -3.8775 N   0  0  0  0  0  0  0  0  0  0  0  0
    0.3241   12.8857   -3.6799 N   0  0  0  0  0  0  0  0  0  0  0  0
   -1.8214   12.2296   -4.5000 N   0  0  0  0  0  0  0  0  0  0  0  0
    1.0904   13.9849   -3.5553 C   0  0  0  0  0  0  0  0  0  0  0  0
   -0.8603   13.1639   -4.2386 C   0  0  0  0  0  0  0  0  0  0  0  0
   -1.3297   14.4017   -4.6425 C   0  0  0  0  0  0  0  0  0  0  0  0
   -0.4852   15.5066   -4.4072 C   0  0  0  0  0  0  0  0  0  0  0  0
   -2.6117   14.1725   -5.2435 C   0  0  0  0  0  0  0  0  0  0  0  0
   -2.9085   12.8148   -5.1061 C   0  0  0  0  0  0  0  0  0  0  0  0
   -4.1129   12.2543   -5.5459 C   0  0  0  0  0  0  0  0  0  0  0  0
   -5.0539   13.1084   -6.1404 C   0  0  0  0  0  0  0  0  0  0  0  0
   -4.7865   14.4693   -6.3201 C   0  0  0  0  0  0  0  0  0  0  0  0
   -3.5542   14.9934   -5.8977 C   0  0  0  0  0  0  0  0  0  0  0  0
    2.4503   13.7926   -2.9554 C   0  0  0  0  0  0  0  0  0  0  0  0
   -1.7205   11.2503   -4.2823 H   0  0  0  0  0  0  0  0  0  0  0  0
   -0.8483   16.8183   -4.6817 N   0  0  0  0  0  0  0  0  0  0  0  0
   -0.6044   17.2782   -6.0493 C   0  0  0  0  0  0  0  0  0  0  0  0
   -1.1612   18.6858   -6.2313 C   0  0  0  0  0  0  0  0  0  0  0  0
   -2.6731   18.6824   -6.0252 C   0  0  0  0  0  0  0  0  0  0  0  0
   -3.1126   17.7928   -4.8571 C   0  0  0  0  0  0  0  0  0  0  0  0
   -1.9629   17.3952   -3.9334 C   0  0  0  0  0  0  0  0  0  0  0  0
   -5.3371   16.2694   -7.9074 N   0  0  0  0  0  0  0  0  0  0  0  0
   -5.7593   15.4316   -6.9154 C   0  0  0  0  0  0  0  0  0  0  0  0
   -6.9276   15.4765   -6.5428 O   0  0  0  0  0  0  0  0  0  0  0  0
   -6.0326   16.8960   -8.2919 H   0  0  0  0  0  0  0  0  0  0  0  0
   -4.4012   16.3186   -8.2738 H   0  0  0  0  0  0  0  0  0  0  0  0
  3  5  1  0  0  0
  4  2  2  0  0  0
  5  6  2  0  0  0
  6  8  1  0  0  0
  7 16  1  0  0  0
  7  1  2  0  0  0
 17 16  1  0  0  0
 17 18  1  0  0  0
 18 19  1  0  0  0
 19 20  1  0  0  0
 20 21  1  0  0  0
 21 16  1  0  0  0
  9  3  1  0  0  0
  9 10  2  0  0  0
 11 12  2  0  0  0
 12 23  1  0  0  0
 13  8  2  0  0  0
 23 22  1  0  0  0
 14  4  1  0  0  0
  4  1  1  0  0  0
  5  2  1  0  0  0
  6  7  1  0  0  0
  8  9  1  0  0  0
 10 11  1  0  0  0
 12 13  1  0  0  0
 23 24  2  0  0  0
  3 15  1  0  0  0
 22 25  1  0  0  0
 22 26  1  0  0  0
M  END
> <minimizedAffinity>
-8.37356

$$$$
CHEMBL3716812


 26 29  0  0  0  0  0  0  0  0999 V2000
   -3.6361   19.1496   -7.5639 N   0  0  0  0  0  0  0  0  0  0  0  0
   -2.6024   21.3035   -7.2500 N   0  0  0  0  0  0  0  0  0  0  0  0
   -0.7058   21.2431   -5.7990 N   0  0  0  0  0  0  0  0  0  0  0  0
   -3.5130   20.4759   -7.7947 C   0  0  0  0  0  0  0  0  0  0  0  0
   -1.7427   20.6488   -6.4598 C   0  0  0  0  0  0  0  0  0  0  0  0
   -1.7349   19.2968   -6.1636 C   0  0  0  0  0  0  0  0  0  0  0  0
   -2.7703   18.5201   -6.7239 C   0  0  0  0  0  0  0  0  0  0  0  0
   -0.5834   19.0692   -5.3393 C   0  0  0  0  0  0  0  0  0  0  0  0
    0.0173   20.3066   -5.0976 C   0  0  0  0  0  0  0  0  0  0  0  0
    1.1470   20.4547   -4.2852 C   0  0  0  0  0  0  0  0  0  0  0  0
    1.6808   19.3019   -3.6899 C   0  0  0  0  0  0  0  0  0  0  0  0
    1.1254   18.0403   -3.9257 C   0  0  0  0  0  0  0  0  0  0  0  0
    0.0120   17.9224   -4.7731 C   0  0  0  0  0  0  0  0  0  0  0  0
   -4.5212   21.0961   -8.7139 C   0  0  0  0  0  0  0  0  0  0  0  0
   -0.5089   22.2309   -5.8446 H   0  0  0  0  0  0  0  0  0  0  0  0
   -2.9435   17.1690   -6.4547 N   0  0  0  0  0  0  0  0  0  0  0  0
   -2.0000   16.2595   -7.1057 C   0  0  0  0  0  0  0  0  0  0  0  0
   -2.2365   14.8327   -6.6233 C   0  0  0  0  0  0  0  0  0  0  0  0
   -1.9828   14.7381   -5.1216 C   0  0  0  0  0  0  0  0  0  0  0  0
   -2.5267   15.9447   -4.3488 C   0  0  0  0  0  0  0  0  0  0  0  0
   -3.5057   16.7914   -5.1599 C   0  0  0  0  0  0  0  0  0  0  0  0
    2.8641   16.7860   -2.7146 N   0  0  0  0  0  0  0  0  0  0  0  0
    1.6288   16.7845   -3.2961 C   0  0  0  0  0  0  0  0  0  0  0  0
    0.9540   15.7597   -3.2792 O   0  0  0  0  0  0  0  0  0  0  0  0
    3.1603   15.9174   -2.2879 H   0  0  0  0  0  0  0  0  0  0  0  0
    3.4971   17.5678   -2.6858 H   0  0  0  0  0  0  0  0  0  0  0  0
  3  5  1  0  0  0
  4  2  2  0  0  0
  5  6  2  0  0  0
  6  8  1  0  0  0
  7 16  1  0  0  0
  7  1  2  0  0  0
 17 16  1  0  0  0
 17 18  1  0  0  0
 18 19  1  0  0  0
 19 20  1  0  0  0
 20 21  1  0  0  0
 21 16  1  0  0  0
  9  3  1  0  0  0
  9 10  2  0  0  0
 11 12  2  0  0  0
 12 23  1  0  0  0
 13  8  2  0  0  0
 23 22  1  0  0  0
 14  4  1  0  0  0
  4  1  1  0  0  0
  5  2  1  0  0  0
  6  7  1  0  0  0
  8  9  1  0  0  0
 10 11  1  0  0  0
 12 13  1  0  0  0
 23 24  2  0  0  0
  3 15  1  0  0  0
 22 25  1  0  0  0
 22 26  1  0  0  0
M  END
> <minimizedAffinity>
-8.35617

$$$$
CHEMBL258838


 25 29  0  0  0  0  0  0  0  0999 V2000
   -2.9886   15.7652   -5.8862 C   0  0  0  0  0  0  0  0  0  0  0  0
   -3.0339   16.1217   -7.3916 C   0  0  0  0  0  0  0  0  0  0  0  0
   -3.5387   17.5427   -7.6632 C   0  0  0  0  0  0  0  0  0  0  0  0
   -3.9474   18.0733   -5.3366 C   0  0  0  0  0  0  0  0  0  0  0  0
   -4.0579   16.5588   -5.1181 C   0  0  0  0  0  0  0  0  0  0  0  0
   -3.4738   19.8324   -6.9123 C   0  0  0  0  0  0  0  0  0  0  0  0
   -1.5500   15.9945   -5.2959 C   0  0  0  0  0  0  0  0  0  0  0  0
   -2.0497   13.7443   -5.0272 C   0  0  0  0  0  0  0  0  0  0  0  0
   -3.1666   14.2794   -5.6709 C   0  0  0  0  0  0  0  0  0  0  0  0
   -4.2412   13.4793   -6.0489 C   0  0  0  0  0  0  0  0  0  0  0  0
   -4.1739   12.1088   -5.8066 C   0  0  0  0  0  0  0  0  0  0  0  0
   -3.0367   11.5562   -5.2097 C   0  0  0  0  0  0  0  0  0  0  0  0
   -1.9687   12.3738   -4.8275 C   0  0  0  0  0  0  0  0  0  0  0  0
   -3.2116   18.4376   -6.5553 N   0  0  0  0  0  0  0  0  0  0  0  0
   -1.1013   14.7230   -4.7053 N   0  0  0  0  0  0  0  0  0  0  0  0
    0.1438   14.6544   -4.0911 C   0  0  0  0  0  0  0  0  0  0  0  0
    1.8774   13.3555   -3.2085 C   0  0  0  0  0  0  0  0  0  0  0  0
    2.0718   15.5476   -2.9996 C   0  0  0  0  0  0  0  0  0  0  0  0
    0.8809   15.7839   -3.6719 C   0  0  0  0  0  0  0  0  0  0  0  0
    0.7652   17.2028   -3.7825 C   0  0  0  0  0  0  0  0  0  0  0  0
    1.8439   17.7728   -3.1392 C   0  0  0  0  0  0  0  0  0  0  0  0
    0.7138   13.4328   -3.8828 N   0  0  0  0  0  0  0  0  0  0  0  0
    2.6201   14.3593   -2.7159 N   0  0  0  0  0  0  0  0  0  0  0  0
    2.6219   16.7526   -2.6584 N   0  0  0  0  0  0  0  0  0  0  0  0
    3.4882   16.8480   -2.1472 H   0  0  0  0  0  0  0  0  0  0  0  0
  1  2  1  0  0  0
  1  7  1  0  0  0
  1  9  1  0  0  0
  2  3  1  0  0  0
  3 14  1  0  0  0
  4 14  1  0  0  0
  4  5  1  0  0  0
  5  1  1  0  0  0
  6 14  1  0  0  0
  7 15  1  0  0  0
 17 22  2  0  0  0
 18 23  2  0  0  0
 19 20  1  0  0  0
 19 16  2  0  0  0
 21 24  1  0  0  0
  9 10  2  0  0  0
 11 12  2  0  0  0
 13  8  2  0  0  0
 15 16  1  0  0  0
 15  8  1  0  0  0
 24 18  1  0  0  0
 16 22  1  0  0  0
 17 23  1  0  0  0
 18 19  1  0  0  0
 20 21  2  0  0  0
  8  9  1  0  0  0
 10 11  1  0  0  0
 12 13  1  0  0  0
 24 25  1  0  0  0
M  END
> <minimizedAffinity>
-10.06003

$$$$
CHEMBL258838


 25 29  0  0  0  0  0  0  0  0999 V2000
   -1.3382   16.5954   -4.7005 C   0  0  0  0  0  0  0  0  0  0  0  0
   -1.5903   15.8284   -6.0209 C   0  0  0  0  0  0  0  0  0  0  0  0
   -3.0671   15.7908   -6.4277 C   0  0  0  0  0  0  0  0  0  0  0  0
   -3.8563   16.9948   -4.4811 C   0  0  0  0  0  0  0  0  0  0  0  0
   -2.5745   16.5112   -3.7907 C   0  0  0  0  0  0  0  0  0  0  0  0
   -5.1129   17.0613   -6.5350 C   0  0  0  0  0  0  0  0  0  0  0  0
   -0.9182   18.0832   -4.9845 C   0  0  0  0  0  0  0  0  0  0  0  0
    0.8363   17.0828   -3.8416 C   0  0  0  0  0  0  0  0  0  0  0  0
   -0.1125   16.0697   -3.9886 C   0  0  0  0  0  0  0  0  0  0  0  0
    0.1286   14.7759   -3.5348 C   0  0  0  0  0  0  0  0  0  0  0  0
    1.3625   14.4884   -2.9548 C   0  0  0  0  0  0  0  0  0  0  0  0
    2.3387   15.4840   -2.8508 C   0  0  0  0  0  0  0  0  0  0  0  0
    2.0788   16.7813   -3.3032 C   0  0  0  0  0  0  0  0  0  0  0  0
   -3.7750   16.9758   -5.9482 N   0  0  0  0  0  0  0  0  0  0  0  0
    0.3822   18.3126   -4.3341 N   0  0  0  0  0  0  0  0  0  0  0  0
    0.9769   19.5664   -4.4145 C   0  0  0  0  0  0  0  0  0  0  0  0
    1.7797   21.3262   -5.7299 C   0  0  0  0  0  0  0  0  0  0  0  0
    2.0819   21.4983   -3.5468 C   0  0  0  0  0  0  0  0  0  0  0  0
    1.4358   20.2961   -3.2956 C   0  0  0  0  0  0  0  0  0  0  0  0
    1.3890   20.1628   -1.8748 C   0  0  0  0  0  0  0  0  0  0  0  0
    2.0429   21.2434   -1.3206 C   0  0  0  0  0  0  0  0  0  0  0  0
    1.1242   20.1529   -5.6371 N   0  0  0  0  0  0  0  0  0  0  0  0
    2.3063   22.0638   -4.7398 N   0  0  0  0  0  0  0  0  0  0  0  0
    2.4686   22.0392   -2.3514 N   0  0  0  0  0  0  0  0  0  0  0  0
    2.9724   22.9110   -2.2680 H   0  0  0  0  0  0  0  0  0  0  0  0
  1  2  1  0  0  0
  1  7  1  0  0  0
  1  9  1  0  0  0
  2  3  1  0  0  0
  3 14  1  0  0  0
  4 14  1  0  0  0
  4  5  1  0  0  0
  5  1  1  0  0  0
  6 14  1  0  0  0
  7 15  1  0  0  0
 17 22  2  0  0  0
 18 23  2  0  0  0
 19 20  1  0  0  0
 19 16  2  0  0  0
 21 24  1  0  0  0
  9 10  2  0  0  0
 11 12  2  0  0  0
 13  8  2  0  0  0
 15 16  1  0  0  0
 15  8  1  0  0  0
 24 18  1  0  0  0
 16 22  1  0  0  0
 17 23  1  0  0  0
 18 19  1  0  0  0
 20 21  2  0  0  0
  8  9  1  0  0  0
 10 11  1  0  0  0
 12 13  1  0  0  0
 24 25  1  0  0  0
M  END
> <minimizedAffinity>
-9.88560

$$$$
CHEMBL258838


 25 29  0  0  0  0  0  0  0  0999 V2000
   -2.3261   16.1847   -5.5026 C   0  0  0  0  0  0  0  0  0  0  0  0
   -2.9835   17.2444   -4.5859 C   0  0  0  0  0  0  0  0  0  0  0  0
   -3.5300   18.4536   -5.3520 C   0  0  0  0  0  0  0  0  0  0  0  0
   -2.7936   17.6812   -7.5252 C   0  0  0  0  0  0  0  0  0  0  0  0
   -1.7518   16.8525   -6.7626 C   0  0  0  0  0  0  0  0  0  0  0  0
   -4.6832   19.1641   -7.3461 C   0  0  0  0  0  0  0  0  0  0  0  0
   -3.3413   15.0381   -5.8565 C   0  0  0  0  0  0  0  0  0  0  0  0
   -1.5620   14.0557   -4.7366 C   0  0  0  0  0  0  0  0  0  0  0  0
   -1.2521   15.4162   -4.7668 C   0  0  0  0  0  0  0  0  0  0  0  0
   -0.1041   15.9146   -4.1570 C   0  0  0  0  0  0  0  0  0  0  0  0
    0.7284   15.0312   -3.4729 C   0  0  0  0  0  0  0  0  0  0  0  0
    0.3987   13.6748   -3.3929 C   0  0  0  0  0  0  0  0  0  0  0  0
   -0.7532   13.1874   -4.0178 C   0  0  0  0  0  0  0  0  0  0  0  0
   -3.9444   18.0774   -6.7019 N   0  0  0  0  0  0  0  0  0  0  0  0
   -2.7390   13.7623   -5.4364 N   0  0  0  0  0  0  0  0  0  0  0  0
   -3.4277   12.5747   -5.6543 C   0  0  0  0  0  0  0  0  0  0  0  0
   -3.3784   10.2771   -6.0898 C   0  0  0  0  0  0  0  0  0  0  0  0
   -5.3692   11.2367   -6.0372 C   0  0  0  0  0  0  0  0  0  0  0  0
   -4.8348   12.4809   -5.7331 C   0  0  0  0  0  0  0  0  0  0  0  0
   -5.9493   13.3517   -5.5375 C   0  0  0  0  0  0  0  0  0  0  0  0
   -7.1022   12.6335   -5.7766 C   0  0  0  0  0  0  0  0  0  0  0  0
   -2.7227   11.4149   -5.7897 N   0  0  0  0  0  0  0  0  0  0  0  0
   -4.6991   10.0966   -6.2477 N   0  0  0  0  0  0  0  0  0  0  0  0
   -6.7310   11.3528   -6.0910 N   0  0  0  0  0  0  0  0  0  0  0  0
   -7.3503   10.5848   -6.3097 H   0  0  0  0  0  0  0  0  0  0  0  0
  1  2  1  0  0  0
  1  7  1  0  0  0
  1  9  1  0  0  0
  2  3  1  0  0  0
  3 14  1  0  0  0
  4 14  1  0  0  0
  4  5  1  0  0  0
  5  1  1  0  0  0
  6 14  1  0  0  0
  7 15  1  0  0  0
 17 22  2  0  0  0
 18 23  2  0  0  0
 19 20  1  0  0  0
 19 16  2  0  0  0
 21 24  1  0  0  0
  9 10  2  0  0  0
 11 12  2  0  0  0
 13  8  2  0  0  0
 15 16  1  0  0  0
 15  8  1  0  0  0
 24 18  1  0  0  0
 16 22  1  0  0  0
 17 23  1  0  0  0
 18 19  1  0  0  0
 20 21  2  0  0  0
  8  9  1  0  0  0
 10 11  1  0  0  0
 12 13  1  0  0  0
 24 25  1  0  0  0
M  END
> <minimizedAffinity>
-9.68351

$$$$
CHEMBL258838


 25 29  0  0  0  0  0  0  0  0999 V2000
   -3.5128   15.8126   -6.0414 C   0  0  0  0  0  0  0  0  0  0  0  0
   -3.6457   15.9501   -7.5773 C   0  0  0  0  0  0  0  0  0  0  0  0
   -4.6761   17.0005   -8.0050 C   0  0  0  0  0  0  0  0  0  0  0  0
   -5.3486   17.5715   -5.7504 C   0  0  0  0  0  0  0  0  0  0  0  0
   -4.8396   16.1788   -5.3567 C   0  0  0  0  0  0  0  0  0  0  0  0
   -5.5776   19.1840   -7.5250 C   0  0  0  0  0  0  0  0  0  0  0  0
   -2.3150   16.6744   -5.5000 C   0  0  0  0  0  0  0  0  0  0  0  0
   -1.8627   14.4616   -4.9664 C   0  0  0  0  0  0  0  0  0  0  0  0
   -3.0769   14.4180   -5.6533 C   0  0  0  0  0  0  0  0  0  0  0  0
   -3.7175   13.2116   -5.9224 C   0  0  0  0  0  0  0  0  0  0  0  0
   -3.1057   12.0248   -5.5241 C   0  0  0  0  0  0  0  0  0  0  0  0
   -1.8642   12.0559   -4.8818 C   0  0  0  0  0  0  0  0  0  0  0  0
   -1.2370   13.2757   -4.6105 C   0  0  0  0  0  0  0  0  0  0  0  0
   -4.7823   18.0676   -7.0124 N   0  0  0  0  0  0  0  0  0  0  0  0
   -1.4081   15.7719   -4.7721 N   0  0  0  0  0  0  0  0  0  0  0  0
   -0.2662   16.2873   -4.1700 C   0  0  0  0  0  0  0  0  0  0  0  0
    0.9993   18.1472   -3.5292 C   0  0  0  0  0  0  0  0  0  0  0  0
    1.9002   16.1605   -3.1715 C   0  0  0  0  0  0  0  0  0  0  0  0
    0.7902   15.4937   -3.6709 C   0  0  0  0  0  0  0  0  0  0  0  0
    1.0481   14.1021   -3.4823 C   0  0  0  0  0  0  0  0  0  0  0  0
    2.3061   13.9694   -2.9326 C   0  0  0  0  0  0  0  0  0  0  0  0
   -0.1431   17.6385   -4.0299 N   0  0  0  0  0  0  0  0  0  0  0  0
    2.0804   17.4848   -3.0885 N   0  0  0  0  0  0  0  0  0  0  0  0
    2.8150   15.2299   -2.7615 N   0  0  0  0  0  0  0  0  0  0  0  0
    3.7168   15.4652   -2.3712 H   0  0  0  0  0  0  0  0  0  0  0  0
  1  2  1  0  0  0
  1  7  1  0  0  0
  1  9  1  0  0  0
  2  3  1  0  0  0
  3 14  1  0  0  0
  4 14  1  0  0  0
  4  5  1  0  0  0
  5  1  1  0  0  0
  6 14  1  0  0  0
  7 15  1  0  0  0
 17 22  2  0  0  0
 18 23  2  0  0  0
 19 20  1  0  0  0
 19 16  2  0  0  0
 21 24  1  0  0  0
  9 10  2  0  0  0
 11 12  2  0  0  0
 13  8  2  0  0  0
 15 16  1  0  0  0
 15  8  1  0  0  0
 24 18  1  0  0  0
 16 22  1  0  0  0
 17 23  1  0  0  0
 18 19  1  0  0  0
 20 21  2  0  0  0
  8  9  1  0  0  0
 10 11  1  0  0  0
 12 13  1  0  0  0
 24 25  1  0  0  0
M  END
> <minimizedAffinity>
-9.54342

$$$$
CHEMBL258838


 25 29  0  0  0  0  0  0  0  0999 V2000
   -2.4234   15.5823   -5.8057 C   0  0  0  0  0  0  0  0  0  0  0  0
   -2.4682   15.4130   -7.3435 C   0  0  0  0  0  0  0  0  0  0  0  0
   -3.5783   16.2312   -8.0115 C   0  0  0  0  0  0  0  0  0  0  0  0
   -4.4589   17.1273   -5.9419 C   0  0  0  0  0  0  0  0  0  0  0  0
   -3.8253   15.9055   -5.2641 C   0  0  0  0  0  0  0  0  0  0  0  0
   -4.7472   18.3393   -8.0033 C   0  0  0  0  0  0  0  0  0  0  0  0
   -1.3677   16.6697   -5.3890 C   0  0  0  0  0  0  0  0  0  0  0  0
   -0.7085   14.6678   -4.4179 C   0  0  0  0  0  0  0  0  0  0  0  0
   -1.8618   14.3487   -5.1362 C   0  0  0  0  0  0  0  0  0  0  0  0
   -2.3447   13.0443   -5.1948 C   0  0  0  0  0  0  0  0  0  0  0  0
   -1.6325   12.0365   -4.5477 C   0  0  0  0  0  0  0  0  0  0  0  0
   -0.4477   12.3384   -3.8695 C   0  0  0  0  0  0  0  0  0  0  0  0
    0.0203   13.6547   -3.8120 C   0  0  0  0  0  0  0  0  0  0  0  0
   -3.8686   17.4440   -7.2498 N   0  0  0  0  0  0  0  0  0  0  0  0
   -0.4165   16.0368   -4.4609 N   0  0  0  0  0  0  0  0  0  0  0  0
    0.6183   16.7911   -3.9202 C   0  0  0  0  0  0  0  0  0  0  0  0
    2.5140   16.9102   -2.5551 C   0  0  0  0  0  0  0  0  0  0  0  0
    1.8116   18.8061   -3.4490 C   0  0  0  0  0  0  0  0  0  0  0  0
    0.7728   18.1802   -4.1236 C   0  0  0  0  0  0  0  0  0  0  0  0
    0.1467   19.1935   -4.9110 C   0  0  0  0  0  0  0  0  0  0  0  0
    0.7813   20.3906   -4.6532 C   0  0  0  0  0  0  0  0  0  0  0  0
    1.5610   16.1704   -3.1544 N   0  0  0  0  0  0  0  0  0  0  0  0
    2.7076   18.2361   -2.6332 N   0  0  0  0  0  0  0  0  0  0  0  0
    1.7831   20.1394   -3.7531 N   0  0  0  0  0  0  0  0  0  0  0  0
    2.4324   20.8143   -3.3737 H   0  0  0  0  0  0  0  0  0  0  0  0
  1  2  1  0  0  0
  1  7  1  0  0  0
  1  9  1  0  0  0
  2  3  1  0  0  0
  3 14  1  0  0  0
  4 14  1  0  0  0
  4  5  1  0  0  0
  5  1  1  0  0  0
  6 14  1  0  0  0
  7 15  1  0  0  0
 17 22  2  0  0  0
 18 23  2  0  0  0
 19 20  1  0  0  0
 19 16  2  0  0  0
 21 24  1  0  0  0
  9 10  2  0  0  0
 11 12  2  0  0  0
 13  8  2  0  0  0
 15 16  1  0  0  0
 15  8  1  0  0  0
 24 18  1  0  0  0
 16 22  1  0  0  0
 17 23  1  0  0  0
 18 19  1  0  0  0
 20 21  2  0  0  0
  8  9  1  0  0  0
 10 11  1  0  0  0
 12 13  1  0  0  0
 24 25  1  0  0  0
M  END
> <minimizedAffinity>
-9.48501

$$$$
CHEMBL258838


 25 29  0  0  0  0  0  0  0  0999 V2000
   -2.8267   16.6571   -5.5328 C   0  0  0  0  0  0  0  0  0  0  0  0
   -4.0573   17.0862   -4.6979 C   0  0  0  0  0  0  0  0  0  0  0  0
   -5.3572   16.4065   -5.1408 C   0  0  0  0  0  0  0  0  0  0  0  0
   -4.3468   15.1816   -6.9684 C   0  0  0  0  0  0  0  0  0  0  0  0
   -3.2584   16.2628   -6.9546 C   0  0  0  0  0  0  0  0  0  0  0  0
   -6.3381   14.3414   -5.9051 C   0  0  0  0  0  0  0  0  0  0  0  0
   -2.0354   15.5025   -4.8177 C   0  0  0  0  0  0  0  0  0  0  0  0
   -0.5846   17.3022   -5.0224 C   0  0  0  0  0  0  0  0  0  0  0  0
   -1.7853   17.7522   -5.5737 C   0  0  0  0  0  0  0  0  0  0  0  0
   -1.9248   19.0530   -6.0495 C   0  0  0  0  0  0  0  0  0  0  0  0
   -0.8461   19.9276   -5.9349 C   0  0  0  0  0  0  0  0  0  0  0  0
    0.3433   19.5011   -5.3365 C   0  0  0  0  0  0  0  0  0  0  0  0
    0.4716   18.1888   -4.8710 C   0  0  0  0  0  0  0  0  0  0  0  0
   -5.0935   15.0852   -5.7065 N   0  0  0  0  0  0  0  0  0  0  0  0
   -0.6471   15.9572   -4.6373 N   0  0  0  0  0  0  0  0  0  0  0  0
    0.2794   15.1099   -4.0407 C   0  0  0  0  0  0  0  0  0  0  0  0
    2.3214   14.8289   -2.9350 C   0  0  0  0  0  0  0  0  0  0  0  0
    1.2045   12.9901   -3.4432 C   0  0  0  0  0  0  0  0  0  0  0  0
    0.1546   13.7035   -4.0043 C   0  0  0  0  0  0  0  0  0  0  0  0
   -0.8293   12.7354   -4.3697 C   0  0  0  0  0  0  0  0  0  0  0  0
   -0.3314   11.4841   -4.0720 C   0  0  0  0  0  0  0  0  0  0  0  0
    1.3768   15.6485   -3.4356 N   0  0  0  0  0  0  0  0  0  0  0  0
    2.3270   13.4869   -2.9080 N   0  0  0  0  0  0  0  0  0  0  0  0
    0.9110   11.6564   -3.5208 N   0  0  0  0  0  0  0  0  0  0  0  0
    1.5276   10.9272   -3.1907 H   0  0  0  0  0  0  0  0  0  0  0  0
  1  2  1  0  0  0
  1  7  1  0  0  0
  1  9  1  0  0  0
  2  3  1  0  0  0
  3 14  1  0  0  0
  4 14  1  0  0  0
  4  5  1  0  0  0
  5  1  1  0  0  0
  6 14  1  0  0  0
  7 15  1  0  0  0
 17 22  2  0  0  0
 18 23  2  0  0  0
 19 20  1  0  0  0
 19 16  2  0  0  0
 21 24  1  0  0  0
  9 10  2  0  0  0
 11 12  2  0  0  0
 13  8  2  0  0  0
 15 16  1  0  0  0
 15  8  1  0  0  0
 24 18  1  0  0  0
 16 22  1  0  0  0
 17 23  1  0  0  0
 18 19  1  0  0  0
 20 21  2  0  0  0
  8  9  1  0  0  0
 10 11  1  0  0  0
 12 13  1  0  0  0
 24 25  1  0  0  0
M  END
> <minimizedAffinity>
-9.39291

$$$$
CHEMBL258838


 25 29  0  0  0  0  0  0  0  0999 V2000
   -0.9893   16.1657   -4.5807 C   0  0  0  0  0  0  0  0  0  0  0  0
   -1.2062   15.9379   -6.0961 C   0  0  0  0  0  0  0  0  0  0  0  0
   -2.5737   16.4195   -6.5919 C   0  0  0  0  0  0  0  0  0  0  0  0
   -3.3539   17.1295   -4.4127 C   0  0  0  0  0  0  0  0  0  0  0  0
   -2.3355   16.1358   -3.8391 C   0  0  0  0  0  0  0  0  0  0  0  0
   -4.2363   18.1551   -6.4055 C   0  0  0  0  0  0  0  0  0  0  0  0
   -0.2038   17.5017   -4.3185 C   0  0  0  0  0  0  0  0  0  0  0  0
    1.0831   15.7713   -3.4612 C   0  0  0  0  0  0  0  0  0  0  0  0
   -0.0377   15.1418   -4.0048 C   0  0  0  0  0  0  0  0  0  0  0  0
   -0.1689   13.7559   -3.9971 C   0  0  0  0  0  0  0  0  0  0  0  0
    0.8647   12.9880   -3.4645 C   0  0  0  0  0  0  0  0  0  0  0  0
    2.0144   13.6076   -2.9653 C   0  0  0  0  0  0  0  0  0  0  0  0
    2.1281   15.0012   -2.9718 C   0  0  0  0  0  0  0  0  0  0  0  0
   -3.0577   17.5423   -5.7916 N   0  0  0  0  0  0  0  0  0  0  0  0
    1.0007   17.1670   -3.5414 N   0  0  0  0  0  0  0  0  0  0  0  0
    1.8702   18.1802   -3.1547 C   0  0  0  0  0  0  0  0  0  0  0  0
    3.7687   18.8496   -1.9635 C   0  0  0  0  0  0  0  0  0  0  0  0
    2.6069   20.4442   -2.9606 C   0  0  0  0  0  0  0  0  0  0  0  0
    1.6967   19.5409   -3.4912 C   0  0  0  0  0  0  0  0  0  0  0  0
    0.8135   20.3066   -4.3111 C   0  0  0  0  0  0  0  0  0  0  0  0
    1.1775   21.6332   -4.2118 C   0  0  0  0  0  0  0  0  0  0  0  0
    2.9720   17.8622   -2.4162 N   0  0  0  0  0  0  0  0  0  0  0  0
    3.6549   20.1705   -2.1732 N   0  0  0  0  0  0  0  0  0  0  0  0
    2.2619   21.7006   -3.3772 N   0  0  0  0  0  0  0  0  0  0  0  0
    2.7646   22.5361   -3.1125 H   0  0  0  0  0  0  0  0  0  0  0  0
  1  2  1  0  0  0
  1  7  1  0  0  0
  1  9  1  0  0  0
  2  3  1  0  0  0
  3 14  1  0  0  0
  4 14  1  0  0  0
  4  5  1  0  0  0
  5  1  1  0  0  0
  6 14  1  0  0  0
  7 15  1  0  0  0
 17 22  2  0  0  0
 18 23  2  0  0  0
 19 20  1  0  0  0
 19 16  2  0  0  0
 21 24  1  0  0  0
  9 10  2  0  0  0
 11 12  2  0  0  0
 13  8  2  0  0  0
 15 16  1  0  0  0
 15  8  1  0  0  0
 24 18  1  0  0  0
 16 22  1  0  0  0
 17 23  1  0  0  0
 18 19  1  0  0  0
 20 21  2  0  0  0
  8  9  1  0  0  0
 10 11  1  0  0  0
 12 13  1  0  0  0
 24 25  1  0  0  0
M  END
> <minimizedAffinity>
-9.25432

$$$$
CHEMBL258838


 25 29  0  0  0  0  0  0  0  0999 V2000
   -2.9498   16.8416   -6.2138 C   0  0  0  0  0  0  0  0  0  0  0  0
   -4.3470   16.6764   -5.5687 C   0  0  0  0  0  0  0  0  0  0  0  0
   -4.9855   15.3114   -5.8463 C   0  0  0  0  0  0  0  0  0  0  0  0
   -3.1713   14.5040   -7.2314 C   0  0  0  0  0  0  0  0  0  0  0  0
   -2.8441   15.9815   -7.4836 C   0  0  0  0  0  0  0  0  0  0  0  0
   -4.5680   12.9452   -6.0394 C   0  0  0  0  0  0  0  0  0  0  0  0
   -1.8105   16.5098   -5.1830 C   0  0  0  0  0  0  0  0  0  0  0  0
   -1.5241   18.7192   -5.8326 C   0  0  0  0  0  0  0  0  0  0  0  0
   -2.6591   18.2924   -6.5238 C   0  0  0  0  0  0  0  0  0  0  0  0
   -3.3783   19.1562   -7.3451 C   0  0  0  0  0  0  0  0  0  0  0  0
   -2.9678   20.4841   -7.4435 C   0  0  0  0  0  0  0  0  0  0  0  0
   -1.8630   20.9335   -6.7139 C   0  0  0  0  0  0  0  0  0  0  0  0
   -1.1452   20.0520   -5.8998 C   0  0  0  0  0  0  0  0  0  0  0  0
   -3.9657   14.2787   -6.0159 N   0  0  0  0  0  0  0  0  0  0  0  0
   -0.9326   17.6879   -5.0925 N   0  0  0  0  0  0  0  0  0  0  0  0
    0.1772   17.6527   -4.2564 C   0  0  0  0  0  0  0  0  0  0  0  0
    1.8023   18.8032   -3.0287 C   0  0  0  0  0  0  0  0  0  0  0  0
    1.9753   16.6002   -3.0879 C   0  0  0  0  0  0  0  0  0  0  0  0
    0.8302   16.4647   -3.8601 C   0  0  0  0  0  0  0  0  0  0  0  0
    0.6145   15.0604   -4.0027 C   0  0  0  0  0  0  0  0  0  0  0  0
    1.6464   14.4011   -3.3681 C   0  0  0  0  0  0  0  0  0  0  0  0
    0.6749   18.8241   -3.7658 N   0  0  0  0  0  0  0  0  0  0  0  0
    2.5290   17.7392   -2.6527 N   0  0  0  0  0  0  0  0  0  0  0  0
    2.4713   15.3523   -2.8278 N   0  0  0  0  0  0  0  0  0  0  0  0
    3.3118   15.1841   -2.2928 H   0  0  0  0  0  0  0  0  0  0  0  0
  1  2  1  0  0  0
  1  7  1  0  0  0
  1  9  1  0  0  0
  2  3  1  0  0  0
  3 14  1  0  0  0
  4 14  1  0  0  0
  4  5  1  0  0  0
  5  1  1  0  0  0
  6 14  1  0  0  0
  7 15  1  0  0  0
 17 22  2  0  0  0
 18 23  2  0  0  0
 19 20  1  0  0  0
 19 16  2  0  0  0
 21 24  1  0  0  0
  9 10  2  0  0  0
 11 12  2  0  0  0
 13  8  2  0  0  0
 15 16  1  0  0  0
 15  8  1  0  0  0
 24 18  1  0  0  0
 16 22  1  0  0  0
 17 23  1  0  0  0
 18 19  1  0  0  0
 20 21  2  0  0  0
  8  9  1  0  0  0
 10 11  1  0  0  0
 12 13  1  0  0  0
 24 25  1  0  0  0
M  END
> <minimizedAffinity>
-9.25357

$$$$
CHEMBL258838


 25 29  0  0  0  0  0  0  0  0999 V2000
   -1.4732   15.9991   -5.1058 C   0  0  0  0  0  0  0  0  0  0  0  0
   -1.5180   15.1613   -6.4064 C   0  0  0  0  0  0  0  0  0  0  0  0
   -2.9411   14.9024   -6.9121 C   0  0  0  0  0  0  0  0  0  0  0  0
   -4.0316   16.0461   -5.0778 C   0  0  0  0  0  0  0  0  0  0  0  0
   -2.7500   15.7710   -4.2807 C   0  0  0  0  0  0  0  0  0  0  0  0
   -5.1293   15.8673   -7.2143 C   0  0  0  0  0  0  0  0  0  0  0  0
   -1.2433   17.5212   -5.4237 C   0  0  0  0  0  0  0  0  0  0  0  0
    0.5431   16.8163   -4.1208 C   0  0  0  0  0  0  0  0  0  0  0  0
   -0.2428   15.6753   -4.2893 C   0  0  0  0  0  0  0  0  0  0  0  0
    0.1407   14.4440   -3.7650 C   0  0  0  0  0  0  0  0  0  0  0  0
    1.3560   14.3526   -3.0896 C   0  0  0  0  0  0  0  0  0  0  0  0
    2.1746   15.4789   -2.9613 C   0  0  0  0  0  0  0  0  0  0  0  0
    1.7720   16.7110   -3.4856 C   0  0  0  0  0  0  0  0  0  0  0  0
   -3.8397   15.9908   -6.5337 N   0  0  0  0  0  0  0  0  0  0  0  0
   -0.0390   17.9530   -4.6955 N   0  0  0  0  0  0  0  0  0  0  0  0
    0.3808   19.2749   -4.7884 C   0  0  0  0  0  0  0  0  0  0  0  0
    1.9702   20.9158   -4.2859 C   0  0  0  0  0  0  0  0  0  0  0  0
    0.1458   21.5876   -5.3381 C   0  0  0  0  0  0  0  0  0  0  0  0
   -0.3733   20.3019   -5.3978 C   0  0  0  0  0  0  0  0  0  0  0  0
   -1.5853   20.4003   -6.1462 C   0  0  0  0  0  0  0  0  0  0  0  0
   -1.7859   21.7269   -6.4658 C   0  0  0  0  0  0  0  0  0  0  0  0
    1.5976   19.6212   -4.2788 N   0  0  0  0  0  0  0  0  0  0  0  0
    1.3019   21.9696   -4.7806 N   0  0  0  0  0  0  0  0  0  0  0  0
   -0.7305   22.4366   -5.9564 N   0  0  0  0  0  0  0  0  0  0  0  0
   -0.5848   23.4336   -6.0328 H   0  0  0  0  0  0  0  0  0  0  0  0
  1  2  1  0  0  0
  1  7  1  0  0  0
  1  9  1  0  0  0
  2  3  1  0  0  0
  3 14  1  0  0  0
  4 14  1  0  0  0
  4  5  1  0  0  0
  5  1  1  0  0  0
  6 14  1  0  0  0
  7 15  1  0  0  0
 17 22  2  0  0  0
 18 23  2  0  0  0
 19 20  1  0  0  0
 19 16  2  0  0  0
 21 24  1  0  0  0
  9 10  2  0  0  0
 11 12  2  0  0  0
 13  8  2  0  0  0
 15 16  1  0  0  0
 15  8  1  0  0  0
 24 18  1  0  0  0
 16 22  1  0  0  0
 17 23  1  0  0  0
 18 19  1  0  0  0
 20 21  2  0  0  0
  8  9  1  0  0  0
 10 11  1  0  0  0
 12 13  1  0  0  0
 24 25  1  0  0  0
M  END
> <minimizedAffinity>
-9.22250

$$$$
CHEMBL4448573


 32 36  0  0  0  0  0  0  0  0999 V2000
   -4.9966   14.7389   -5.8523 C   0  0  0  0  0  0  0  0  0  0  0  0
   -4.2400   13.5604   -6.4705 C   0  0  0  0  0  0  0  0  0  0  0  0
   -2.7828   13.9250   -6.8461 C   0  0  0  0  0  0  0  0  0  0  0  0
   -2.7600   15.2388   -7.6764 C   0  0  0  0  0  0  0  0  0  0  0  0
   -4.9565   15.9368   -6.7956 C   0  0  0  0  0  0  0  0  0  0  0  0
   -3.5688   16.2901   -7.0363 N   0  0  0  0  0  0  0  0  0  0  0  0
   -3.0118   17.5299   -6.7849 C   0  0  0  0  0  0  0  0  0  0  0  0
   -1.0310   18.7621   -6.4510 C   0  0  0  0  0  0  0  0  0  0  0  0
   -2.9287   19.8655   -6.2483 C   0  0  0  0  0  0  0  0  0  0  0  0
   -3.7059   18.7410   -6.5126 C   0  0  0  0  0  0  0  0  0  0  0  0
   -5.0599   19.1858   -6.3723 C   0  0  0  0  0  0  0  0  0  0  0  0
   -5.0563   20.5372   -6.0953 C   0  0  0  0  0  0  0  0  0  0  0  0
   -1.6468   17.6019   -6.7341 N   0  0  0  0  0  0  0  0  0  0  0  0
   -1.5933   19.9476   -6.2005 N   0  0  0  0  0  0  0  0  0  0  0  0
   -3.7509   20.9335   -6.0204 N   0  0  0  0  0  0  0  0  0  0  0  0
   -3.4142   21.8618   -5.8111 H   0  0  0  0  0  0  0  0  0  0  0  0
   -1.8504   13.8542   -5.6347 C   0  0  0  0  0  0  0  0  0  0  0  0
   -1.2514   15.0464   -5.1745 C   0  0  0  0  0  0  0  0  0  0  0  0
   -0.3836   15.0604   -4.0789 C   0  0  0  0  0  0  0  0  0  0  0  0
   -0.1254   13.8603   -3.4101 C   0  0  0  0  0  0  0  0  0  0  0  0
   -0.7230   12.6754   -3.8319 C   0  0  0  0  0  0  0  0  0  0  0  0
   -1.5781   12.6755   -4.9334 C   0  0  0  0  0  0  0  0  0  0  0  0
    1.6053   16.5404   -3.6924 C   0  0  0  0  0  0  0  0  0  0  0  0
    0.2628   16.2178   -3.5901 N   0  0  0  0  0  0  0  0  0  0  0  0
    2.4624   15.8481   -4.2349 O   0  0  0  0  0  0  0  0  0  0  0  0
   -0.3466   16.8579   -3.1091 H   0  0  0  0  0  0  0  0  0  0  0  0
    2.0418   17.8451   -3.0842 C   0  0  0  0  0  0  0  0  0  0  0  0
    3.2466   18.0300   -2.3895 C   0  0  0  0  0  0  0  0  0  0  0  0
    3.5711   19.2819   -1.8535 C   0  0  0  0  0  0  0  0  0  0  0  0
    2.7010   20.3592   -2.0034 C   0  0  0  0  0  0  0  0  0  0  0  0
    1.5028   20.1913   -2.6900 C   0  0  0  0  0  0  0  0  0  0  0  0
    1.1766   18.9437   -3.2263 C   0  0  0  0  0  0  0  0  0  0  0  0
  1  2  1  0  0  0
  2  3  1  0  0  0
  3  4  1  0  0  0
  3 17  1  0  0  0
  4  6  1  0  0  0
  5  6  1  0  0  0
  5  1  1  0  0  0
  8 13  2  0  0  0
  9 14  2  0  0  0
 10 11  1  0  0  0
 10  7  2  0  0  0
 12 15  1  0  0  0
 18 19  2  0  0  0
 19 24  1  0  0  0
 20 21  2  0  0  0
 22 17  2  0  0  0
 23 27  1  0  0  0
 28 29  2  0  0  0
 30 31  2  0  0  0
 32 27  2  0  0  0
  6  7  1  0  0  0
 15  9  1  0  0  0
 24 23  1  0  0  0
  7 13  1  0  0  0
  8 14  1  0  0  0
  9 10  1  0  0  0
 11 12  2  0  0  0
 17 18  1  0  0  0
 19 20  1  0  0  0
 21 22  1  0  0  0
 23 25  2  0  0  0
 27 28  1  0  0  0
 29 30  1  0  0  0
 31 32  1  0  0  0
 15 16  1  0  0  0
 24 26  1  0  0  0
M  END
> <minimizedAffinity>
-10.66308

$$$$
CHEMBL4448573


 32 36  0  0  0  0  0  0  0  0999 V2000
   -4.1161   20.2017   -8.7152 C   0  0  0  0  0  0  0  0  0  0  0  0
   -3.9266   21.2488   -7.6146 C   0  0  0  0  0  0  0  0  0  0  0  0
   -3.8430   20.6155   -6.2042 C   0  0  0  0  0  0  0  0  0  0  0  0
   -5.0289   19.6336   -5.9905 C   0  0  0  0  0  0  0  0  0  0  0  0
   -5.3489   19.3533   -8.4209 C   0  0  0  0  0  0  0  0  0  0  0  0
   -5.1720   18.7118   -7.1302 N   0  0  0  0  0  0  0  0  0  0  0  0
   -5.2113   17.3476   -6.9115 C   0  0  0  0  0  0  0  0  0  0  0  0
   -6.3320   15.5575   -5.8661 C   0  0  0  0  0  0  0  0  0  0  0  0
   -4.4844   15.0631   -6.9622 C   0  0  0  0  0  0  0  0  0  0  0  0
   -4.2541   16.3847   -7.3350 C   0  0  0  0  0  0  0  0  0  0  0  0
   -3.0094   16.3581   -8.0425 C   0  0  0  0  0  0  0  0  0  0  0  0
   -2.5728   15.0519   -8.1228 C   0  0  0  0  0  0  0  0  0  0  0  0
   -6.2478   16.8659   -6.1601 N   0  0  0  0  0  0  0  0  0  0  0  0
   -5.4971   14.5809   -6.2314 N   0  0  0  0  0  0  0  0  0  0  0  0
   -3.4809   14.2779   -7.4574 N   0  0  0  0  0  0  0  0  0  0  0  0
   -3.4348   13.2790   -7.3193 H   0  0  0  0  0  0  0  0  0  0  0  0
   -2.4399   20.0836   -5.9037 C   0  0  0  0  0  0  0  0  0  0  0  0
   -2.2789   18.7014   -5.6686 C   0  0  0  0  0  0  0  0  0  0  0  0
   -1.0303   18.1428   -5.3812 C   0  0  0  0  0  0  0  0  0  0  0  0
    0.0897   18.9787   -5.3514 C   0  0  0  0  0  0  0  0  0  0  0  0
   -0.0412   20.3421   -5.6028 C   0  0  0  0  0  0  0  0  0  0  0  0
   -1.2953   20.8865   -5.8774 C   0  0  0  0  0  0  0  0  0  0  0  0
   -1.6666   15.8950   -4.4656 C   0  0  0  0  0  0  0  0  0  0  0  0
   -0.8139   16.7723   -5.1137 N   0  0  0  0  0  0  0  0  0  0  0  0
   -2.7692   16.1840   -4.0085 O   0  0  0  0  0  0  0  0  0  0  0  0
    0.0744   16.4253   -5.4346 H   0  0  0  0  0  0  0  0  0  0  0  0
   -1.1951   14.4751   -4.3100 C   0  0  0  0  0  0  0  0  0  0  0  0
   -1.9273   13.3495   -4.7167 C   0  0  0  0  0  0  0  0  0  0  0  0
   -1.4102   12.0620   -4.5302 C   0  0  0  0  0  0  0  0  0  0  0  0
   -0.1620   11.8831   -3.9383 C   0  0  0  0  0  0  0  0  0  0  0  0
    0.5758   12.9897   -3.5302 C   0  0  0  0  0  0  0  0  0  0  0  0
    0.0627   14.2753   -3.7153 C   0  0  0  0  0  0  0  0  0  0  0  0
  1  2  1  0  0  0
  2  3  1  0  0  0
  3  4  1  0  0  0
  3 17  1  0  0  0
  4  6  1  0  0  0
  5  6  1  0  0  0
  5  1  1  0  0  0
  8 13  2  0  0  0
  9 14  2  0  0  0
 10 11  1  0  0  0
 10  7  2  0  0  0
 12 15  1  0  0  0
 18 19  2  0  0  0
 19 24  1  0  0  0
 20 21  2  0  0  0
 22 17  2  0  0  0
 23 27  1  0  0  0
 28 29  2  0  0  0
 30 31  2  0  0  0
 32 27  2  0  0  0
  6  7  1  0  0  0
 15  9  1  0  0  0
 24 23  1  0  0  0
  7 13  1  0  0  0
  8 14  1  0  0  0
  9 10  1  0  0  0
 11 12  2  0  0  0
 17 18  1  0  0  0
 19 20  1  0  0  0
 21 22  1  0  0  0
 23 25  2  0  0  0
 27 28  1  0  0  0
 29 30  1  0  0  0
 31 32  1  0  0  0
 15 16  1  0  0  0
 24 26  1  0  0  0
M  END
> <minimizedAffinity>
-10.51243

$$$$
CHEMBL4448573


 32 36  0  0  0  0  0  0  0  0999 V2000
   -4.1482   20.3930   -8.7481 C   0  0  0  0  0  0  0  0  0  0  0  0
   -4.1982   21.3467   -7.5517 C   0  0  0  0  0  0  0  0  0  0  0  0
   -3.9612   20.6193   -6.2055 C   0  0  0  0  0  0  0  0  0  0  0  0
   -4.8868   19.3749   -6.1028 C   0  0  0  0  0  0  0  0  0  0  0  0
   -5.1498   19.2592   -8.5533 C   0  0  0  0  0  0  0  0  0  0  0  0
   -4.8208   18.5568   -7.3257 N   0  0  0  0  0  0  0  0  0  0  0  0
   -4.5426   17.2059   -7.2362 C   0  0  0  0  0  0  0  0  0  0  0  0
   -3.0743   15.4596   -7.8262 C   0  0  0  0  0  0  0  0  0  0  0  0
   -4.8848   14.8932   -6.7033 C   0  0  0  0  0  0  0  0  0  0  0  0
   -5.3543   16.2023   -6.6389 C   0  0  0  0  0  0  0  0  0  0  0  0
   -6.6224   16.1087   -5.9803 C   0  0  0  0  0  0  0  0  0  0  0  0
   -6.8422   14.7936   -5.6262 C   0  0  0  0  0  0  0  0  0  0  0  0
   -3.3926   16.7651   -7.8314 N   0  0  0  0  0  0  0  0  0  0  0  0
   -3.7596   14.4520   -7.2790 N   0  0  0  0  0  0  0  0  0  0  0  0
   -5.7761   14.0675   -6.0768 N   0  0  0  0  0  0  0  0  0  0  0  0
   -5.6476   13.0699   -5.9920 H   0  0  0  0  0  0  0  0  0  0  0  0
   -2.4712   20.3993   -5.9346 C   0  0  0  0  0  0  0  0  0  0  0  0
   -2.0366   19.1084   -5.5652 C   0  0  0  0  0  0  0  0  0  0  0  0
   -0.6934   18.8316   -5.2953 C   0  0  0  0  0  0  0  0  0  0  0  0
    0.2437   19.8613   -5.4203 C   0  0  0  0  0  0  0  0  0  0  0  0
   -0.1584   21.1376   -5.8057 C   0  0  0  0  0  0  0  0  0  0  0  0
   -1.5037   21.4009   -6.0610 C   0  0  0  0  0  0  0  0  0  0  0  0
    0.6402   17.2833   -3.8393 C   0  0  0  0  0  0  0  0  0  0  0  0
   -0.2055   17.5664   -4.8983 N   0  0  0  0  0  0  0  0  0  0  0  0
    1.1111   18.1127   -3.0655 O   0  0  0  0  0  0  0  0  0  0  0  0
   -0.5183   16.8044   -5.4762 H   0  0  0  0  0  0  0  0  0  0  0  0
    1.0102   15.8407   -3.6284 C   0  0  0  0  0  0  0  0  0  0  0  0
    2.2972   15.3954   -3.2913 C   0  0  0  0  0  0  0  0  0  0  0  0
    2.5518   14.0299   -3.1160 C   0  0  0  0  0  0  0  0  0  0  0  0
    1.5298   13.0968   -3.2747 C   0  0  0  0  0  0  0  0  0  0  0  0
    0.2484   13.5234   -3.6085 C   0  0  0  0  0  0  0  0  0  0  0  0
   -0.0087   14.8849   -3.7835 C   0  0  0  0  0  0  0  0  0  0  0  0
  1  2  1  0  0  0
  2  3  1  0  0  0
  3  4  1  0  0  0
  3 17  1  0  0  0
  4  6  1  0  0  0
  5  6  1  0  0  0
  5  1  1  0  0  0
  8 13  2  0  0  0
  9 14  2  0  0  0
 10 11  1  0  0  0
 10  7  2  0  0  0
 12 15  1  0  0  0
 18 19  2  0  0  0
 19 24  1  0  0  0
 20 21  2  0  0  0
 22 17  2  0  0  0
 23 27  1  0  0  0
 28 29  2  0  0  0
 30 31  2  0  0  0
 32 27  2  0  0  0
  6  7  1  0  0  0
 15  9  1  0  0  0
 24 23  1  0  0  0
  7 13  1  0  0  0
  8 14  1  0  0  0
  9 10  1  0  0  0
 11 12  2  0  0  0
 17 18  1  0  0  0
 19 20  1  0  0  0
 21 22  1  0  0  0
 23 25  2  0  0  0
 27 28  1  0  0  0
 29 30  1  0  0  0
 31 32  1  0  0  0
 15 16  1  0  0  0
 24 26  1  0  0  0
M  END
> <minimizedAffinity>
-10.47078

$$$$
CHEMBL4448573


 32 36  0  0  0  0  0  0  0  0999 V2000
   -1.7647   15.9120   -4.5383 C   0  0  0  0  0  0  0  0  0  0  0  0
   -1.1727   16.6172   -5.7613 C   0  0  0  0  0  0  0  0  0  0  0  0
   -2.1118   16.5564   -6.9908 C   0  0  0  0  0  0  0  0  0  0  0  0
   -2.5823   15.0943   -7.2295 C   0  0  0  0  0  0  0  0  0  0  0  0
   -2.1180   14.4701   -4.8880 C   0  0  0  0  0  0  0  0  0  0  0  0
   -3.0711   14.4797   -5.9835 N   0  0  0  0  0  0  0  0  0  0  0  0
   -4.3240   13.8972   -5.9486 C   0  0  0  0  0  0  0  0  0  0  0  0
   -6.6505   14.2489   -5.8174 C   0  0  0  0  0  0  0  0  0  0  0  0
   -5.9657   12.1535   -5.8302 C   0  0  0  0  0  0  0  0  0  0  0  0
   -4.6209   12.5072   -5.9002 C   0  0  0  0  0  0  0  0  0  0  0  0
   -3.9089   11.2656   -5.8534 C   0  0  0  0  0  0  0  0  0  0  0  0
   -4.8217   10.2319   -5.8182 C   0  0  0  0  0  0  0  0  0  0  0  0
   -5.4017   14.7381   -5.8980 N   0  0  0  0  0  0  0  0  0  0  0  0
   -7.0274   12.9677   -5.7847 N   0  0  0  0  0  0  0  0  0  0  0  0
   -6.0684   10.7906   -5.8015 N   0  0  0  0  0  0  0  0  0  0  0  0
   -6.9486   10.2986   -5.7555 H   0  0  0  0  0  0  0  0  0  0  0  0
   -3.1979   17.6327   -6.9285 C   0  0  0  0  0  0  0  0  0  0  0  0
   -4.3193   17.5087   -7.7764 C   0  0  0  0  0  0  0  0  0  0  0  0
   -5.3482   18.4547   -7.7813 C   0  0  0  0  0  0  0  0  0  0  0  0
   -5.2695   19.5386   -6.9021 C   0  0  0  0  0  0  0  0  0  0  0  0
   -4.1838   19.6697   -6.0400 C   0  0  0  0  0  0  0  0  0  0  0  0
   -3.1597   18.7234   -6.0544 C   0  0  0  0  0  0  0  0  0  0  0  0
   -7.6006   17.5947   -8.4762 C   0  0  0  0  0  0  0  0  0  0  0  0
   -6.4806   18.3949   -8.6244 N   0  0  0  0  0  0  0  0  0  0  0  0
   -7.7829   16.7901   -7.5664 O   0  0  0  0  0  0  0  0  0  0  0  0
   -6.4344   19.0088   -9.4203 H   0  0  0  0  0  0  0  0  0  0  0  0
   -8.6753   17.7252   -9.5204 C   0  0  0  0  0  0  0  0  0  0  0  0
   -8.5877   18.5587  -10.6457 C   0  0  0  0  0  0  0  0  0  0  0  0
   -9.6399   18.6190  -11.5671 C   0  0  0  0  0  0  0  0  0  0  0  0
  -10.7871   17.8519  -11.3774 C   0  0  0  0  0  0  0  0  0  0  0  0
  -10.8883   17.0205  -10.2666 C   0  0  0  0  0  0  0  0  0  0  0  0
   -9.8400   16.9579   -9.3459 C   0  0  0  0  0  0  0  0  0  0  0  0
  1  2  1  0  0  0
  2  3  1  0  0  0
  3  4  1  0  0  0
  3 17  1  0  0  0
  4  6  1  0  0  0
  5  6  1  0  0  0
  5  1  1  0  0  0
  8 13  2  0  0  0
  9 14  2  0  0  0
 10 11  1  0  0  0
 10  7  2  0  0  0
 12 15  1  0  0  0
 18 19  2  0  0  0
 19 24  1  0  0  0
 20 21  2  0  0  0
 22 17  2  0  0  0
 23 27  1  0  0  0
 28 29  2  0  0  0
 30 31  2  0  0  0
 32 27  2  0  0  0
  6  7  1  0  0  0
 15  9  1  0  0  0
 24 23  1  0  0  0
  7 13  1  0  0  0
  8 14  1  0  0  0
  9 10  1  0  0  0
 11 12  2  0  0  0
 17 18  1  0  0  0
 19 20  1  0  0  0
 21 22  1  0  0  0
 23 25  2  0  0  0
 27 28  1  0  0  0
 29 30  1  0  0  0
 31 32  1  0  0  0
 15 16  1  0  0  0
 24 26  1  0  0  0
M  END
> <minimizedAffinity>
-9.98673

$$$$
CHEMBL4448573


 32 36  0  0  0  0  0  0  0  0999 V2000
    2.6116   14.4500   -4.2672 C   0  0  0  0  0  0  0  0  0  0  0  0
    1.8951   13.6232   -3.1964 C   0  0  0  0  0  0  0  0  0  0  0  0
    0.4927   14.1845   -2.8562 C   0  0  0  0  0  0  0  0  0  0  0  0
    0.5853   15.7090   -2.5676 C   0  0  0  0  0  0  0  0  0  0  0  0
    2.6957   15.9088   -3.8299 C   0  0  0  0  0  0  0  0  0  0  0  0
    1.3484   16.4066   -3.6165 N   0  0  0  0  0  0  0  0  0  0  0  0
    0.7975   17.5009   -4.2563 C   0  0  0  0  0  0  0  0  0  0  0  0
   -0.4156   18.2815   -6.1197 C   0  0  0  0  0  0  0  0  0  0  0  0
    0.3031   19.8053   -4.6979 C   0  0  0  0  0  0  0  0  0  0  0  0
    0.9140   18.8654   -3.8723 C   0  0  0  0  0  0  0  0  0  0  0  0
    1.5506   19.6335   -2.8450 C   0  0  0  0  0  0  0  0  0  0  0  0
    1.2614   20.9674   -3.0449 C   0  0  0  0  0  0  0  0  0  0  0  0
    0.1114   17.2655   -5.4159 N   0  0  0  0  0  0  0  0  0  0  0  0
   -0.3741   19.5853   -5.8317 N   0  0  0  0  0  0  0  0  0  0  0  0
    0.5039   21.0538   -4.1787 N   0  0  0  0  0  0  0  0  0  0  0  0
    0.1488   21.8980   -4.6032 H   0  0  0  0  0  0  0  0  0  0  0  0
   -0.5600   13.7338   -3.8714 C   0  0  0  0  0  0  0  0  0  0  0  0
   -1.4195   14.7051   -4.4276 C   0  0  0  0  0  0  0  0  0  0  0  0
   -2.4096   14.3692   -5.3553 C   0  0  0  0  0  0  0  0  0  0  0  0
   -2.5302   13.0358   -5.7570 C   0  0  0  0  0  0  0  0  0  0  0  0
   -1.6783   12.0636   -5.2390 C   0  0  0  0  0  0  0  0  0  0  0  0
   -0.7024   12.4124   -4.3061 C   0  0  0  0  0  0  0  0  0  0  0  0
   -3.1733   15.9822   -7.1191 C   0  0  0  0  0  0  0  0  0  0  0  0
   -3.3127   15.2941   -5.9257 N   0  0  0  0  0  0  0  0  0  0  0  0
   -2.2148   15.8936   -7.8818 O   0  0  0  0  0  0  0  0  0  0  0  0
   -4.1380   15.4579   -5.3738 H   0  0  0  0  0  0  0  0  0  0  0  0
   -4.2895   16.9144   -7.5035 C   0  0  0  0  0  0  0  0  0  0  0  0
   -4.1025   18.2352   -7.9381 C   0  0  0  0  0  0  0  0  0  0  0  0
   -5.2023   19.0335   -8.2739 C   0  0  0  0  0  0  0  0  0  0  0  0
   -6.4960   18.5257   -8.1804 C   0  0  0  0  0  0  0  0  0  0  0  0
   -6.6972   17.2177   -7.7514 C   0  0  0  0  0  0  0  0  0  0  0  0
   -5.6019   16.4188   -7.4161 C   0  0  0  0  0  0  0  0  0  0  0  0
  1  2  1  0  0  0
  2  3  1  0  0  0
  3  4  1  0  0  0
  3 17  1  0  0  0
  4  6  1  0  0  0
  5  6  1  0  0  0
  5  1  1  0  0  0
  8 13  2  0  0  0
  9 14  2  0  0  0
 10 11  1  0  0  0
 10  7  2  0  0  0
 12 15  1  0  0  0
 18 19  2  0  0  0
 19 24  1  0  0  0
 20 21  2  0  0  0
 22 17  2  0  0  0
 23 27  1  0  0  0
 28 29  2  0  0  0
 30 31  2  0  0  0
 32 27  2  0  0  0
  6  7  1  0  0  0
 15  9  1  0  0  0
 24 23  1  0  0  0
  7 13  1  0  0  0
  8 14  1  0  0  0
  9 10  1  0  0  0
 11 12  2  0  0  0
 17 18  1  0  0  0
 19 20  1  0  0  0
 21 22  1  0  0  0
 23 25  2  0  0  0
 27 28  1  0  0  0
 29 30  1  0  0  0
 31 32  1  0  0  0
 15 16  1  0  0  0
 24 26  1  0  0  0
M  END
> <minimizedAffinity>
-9.87498

$$$$
CHEMBL4448573


 32 36  0  0  0  0  0  0  0  0999 V2000
   -1.9740   15.4230   -4.7426 C   0  0  0  0  0  0  0  0  0  0  0  0
   -1.3995   16.0634   -6.0088 C   0  0  0  0  0  0  0  0  0  0  0  0
   -2.4118   16.0679   -7.1805 C   0  0  0  0  0  0  0  0  0  0  0  0
   -3.0145   14.6476   -7.3685 C   0  0  0  0  0  0  0  0  0  0  0  0
   -2.4651   14.0118   -5.0487 C   0  0  0  0  0  0  0  0  0  0  0  0
   -3.4775   14.0891   -6.0868 N   0  0  0  0  0  0  0  0  0  0  0  0
   -4.7699   13.6133   -5.9698 C   0  0  0  0  0  0  0  0  0  0  0  0
   -6.2232   11.7821   -6.2668 C   0  0  0  0  0  0  0  0  0  0  0  0
   -7.1348   13.6670   -5.5770 C   0  0  0  0  0  0  0  0  0  0  0  0
   -5.9229   14.3523   -5.5862 C   0  0  0  0  0  0  0  0  0  0  0  0
   -6.2552   15.6965   -5.2210 C   0  0  0  0  0  0  0  0  0  0  0  0
   -7.6069   15.7621   -4.9532 C   0  0  0  0  0  0  0  0  0  0  0  0
   -4.9869   12.3066   -6.3111 N   0  0  0  0  0  0  0  0  0  0  0  0
   -7.3572   12.3881   -5.9047 N   0  0  0  0  0  0  0  0  0  0  0  0
   -8.1268   14.5187   -5.1781 N   0  0  0  0  0  0  0  0  0  0  0  0
   -9.0946   14.2455   -5.0902 H   0  0  0  0  0  0  0  0  0  0  0  0
   -3.3998   17.2314   -7.0717 C   0  0  0  0  0  0  0  0  0  0  0  0
   -4.5277   17.2397   -7.9200 C   0  0  0  0  0  0  0  0  0  0  0  0
   -5.4702   18.2712   -7.8839 C   0  0  0  0  0  0  0  0  0  0  0  0
   -5.2972   19.3081   -6.9625 C   0  0  0  0  0  0  0  0  0  0  0  0
   -4.2043   19.3096   -6.0995 C   0  0  0  0  0  0  0  0  0  0  0  0
   -3.2666   18.2789   -6.1550 C   0  0  0  0  0  0  0  0  0  0  0  0
   -7.6717   17.4650   -8.7778 C   0  0  0  0  0  0  0  0  0  0  0  0
   -6.6033   18.3441   -8.7248 N   0  0  0  0  0  0  0  0  0  0  0  0
   -7.7977   16.4584   -8.0857 O   0  0  0  0  0  0  0  0  0  0  0  0
   -6.6006   19.1306   -9.3524 H   0  0  0  0  0  0  0  0  0  0  0  0
   -8.7604   17.7736   -9.7688 C   0  0  0  0  0  0  0  0  0  0  0  0
  -10.0832   17.3192   -9.6574 C   0  0  0  0  0  0  0  0  0  0  0  0
  -11.0322   17.6544  -10.6305 C   0  0  0  0  0  0  0  0  0  0  0  0
  -10.6743   18.4432  -11.7213 C   0  0  0  0  0  0  0  0  0  0  0  0
   -9.3666   18.9014  -11.8451 C   0  0  0  0  0  0  0  0  0  0  0  0
   -8.4177   18.5691  -10.8757 C   0  0  0  0  0  0  0  0  0  0  0  0
  1  2  1  0  0  0
  2  3  1  0  0  0
  3  4  1  0  0  0
  3 17  1  0  0  0
  4  6  1  0  0  0
  5  6  1  0  0  0
  5  1  1  0  0  0
  8 13  2  0  0  0
  9 14  2  0  0  0
 10 11  1  0  0  0
 10  7  2  0  0  0
 12 15  1  0  0  0
 18 19  2  0  0  0
 19 24  1  0  0  0
 20 21  2  0  0  0
 22 17  2  0  0  0
 23 27  1  0  0  0
 28 29  2  0  0  0
 30 31  2  0  0  0
 32 27  2  0  0  0
  6  7  1  0  0  0
 15  9  1  0  0  0
 24 23  1  0  0  0
  7 13  1  0  0  0
  8 14  1  0  0  0
  9 10  1  0  0  0
 11 12  2  0  0  0
 17 18  1  0  0  0
 19 20  1  0  0  0
 21 22  1  0  0  0
 23 25  2  0  0  0
 27 28  1  0  0  0
 29 30  1  0  0  0
 31 32  1  0  0  0
 15 16  1  0  0  0
 24 26  1  0  0  0
M  END
> <minimizedAffinity>
-9.75145

$$$$
CHEMBL4448573


 32 36  0  0  0  0  0  0  0  0999 V2000
   -5.6350   21.2455   -6.6568 C   0  0  0  0  0  0  0  0  0  0  0  0
   -5.9123   20.4776   -7.9518 C   0  0  0  0  0  0  0  0  0  0  0  0
   -4.6938   19.6428   -8.4163 C   0  0  0  0  0  0  0  0  0  0  0  0
   -3.4160   20.5276   -8.4287 C   0  0  0  0  0  0  0  0  0  0  0  0
   -4.4001   22.1246   -6.8261 C   0  0  0  0  0  0  0  0  0  0  0  0
   -3.2721   21.2769   -7.1690 N   0  0  0  0  0  0  0  0  0  0  0  0
   -2.0917   21.2014   -6.4540 C   0  0  0  0  0  0  0  0  0  0  0  0
   -0.3295   19.8239   -5.7119 C   0  0  0  0  0  0  0  0  0  0  0  0
   -0.3088   21.9165   -5.0188 C   0  0  0  0  0  0  0  0  0  0  0  0
   -1.4846   22.2374   -5.6917 C   0  0  0  0  0  0  0  0  0  0  0  0
   -1.7522   23.5995   -5.3401 C   0  0  0  0  0  0  0  0  0  0  0  0
   -0.7281   24.0601   -4.5388 C   0  0  0  0  0  0  0  0  0  0  0  0
   -1.4583   19.9895   -6.4217 N   0  0  0  0  0  0  0  0  0  0  0  0
    0.3212   20.7357   -4.9842 N   0  0  0  0  0  0  0  0  0  0  0  0
    0.1398   23.0217   -4.3510 N   0  0  0  0  0  0  0  0  0  0  0  0
    0.9815   23.0333   -3.7939 H   0  0  0  0  0  0  0  0  0  0  0  0
   -4.6052   18.3074   -7.6741 C   0  0  0  0  0  0  0  0  0  0  0  0
   -3.3951   17.9734   -7.0293 C   0  0  0  0  0  0  0  0  0  0  0  0
   -3.2359   16.7694   -6.3376 C   0  0  0  0  0  0  0  0  0  0  0  0
   -4.3175   15.8868   -6.2660 C   0  0  0  0  0  0  0  0  0  0  0  0
   -5.5287   16.2052   -6.8750 C   0  0  0  0  0  0  0  0  0  0  0  0
   -5.6688   17.4055   -7.5708 C   0  0  0  0  0  0  0  0  0  0  0  0
   -1.7665   16.3945   -4.3385 C   0  0  0  0  0  0  0  0  0  0  0  0
   -2.0417   16.3722   -5.6953 N   0  0  0  0  0  0  0  0  0  0  0  0
   -2.5388   16.7777   -3.4638 O   0  0  0  0  0  0  0  0  0  0  0  0
   -1.3241   16.0497   -6.3226 H   0  0  0  0  0  0  0  0  0  0  0  0
   -0.4080   15.9118   -3.9099 C   0  0  0  0  0  0  0  0  0  0  0  0
    0.7443   16.7120   -3.8855 C   0  0  0  0  0  0  0  0  0  0  0  0
    1.9704   16.1769   -3.4731 C   0  0  0  0  0  0  0  0  0  0  0  0
    2.0611   14.8431   -3.0821 C   0  0  0  0  0  0  0  0  0  0  0  0
    0.9271   14.0374   -3.1007 C   0  0  0  0  0  0  0  0  0  0  0  0
   -0.2976   14.5685   -3.5112 C   0  0  0  0  0  0  0  0  0  0  0  0
  1  2  1  0  0  0
  2  3  1  0  0  0
  3  4  1  0  0  0
  3 17  1  0  0  0
  4  6  1  0  0  0
  5  6  1  0  0  0
  5  1  1  0  0  0
  8 13  2  0  0  0
  9 14  2  0  0  0
 10 11  1  0  0  0
 10  7  2  0  0  0
 12 15  1  0  0  0
 18 19  2  0  0  0
 19 24  1  0  0  0
 20 21  2  0  0  0
 22 17  2  0  0  0
 23 27  1  0  0  0
 28 29  2  0  0  0
 30 31  2  0  0  0
 32 27  2  0  0  0
  6  7  1  0  0  0
 15  9  1  0  0  0
 24 23  1  0  0  0
  7 13  1  0  0  0
  8 14  1  0  0  0
  9 10  1  0  0  0
 11 12  2  0  0  0
 17 18  1  0  0  0
 19 20  1  0  0  0
 21 22  1  0  0  0
 23 25  2  0  0  0
 27 28  1  0  0  0
 29 30  1  0  0  0
 31 32  1  0  0  0
 15 16  1  0  0  0
 24 26  1  0  0  0
M  END
> <minimizedAffinity>
-9.61063

$$$$
CHEMBL4448573


 32 36  0  0  0  0  0  0  0  0999 V2000
    1.8399   22.2263   -0.5189 C   0  0  0  0  0  0  0  0  0  0  0  0
    0.7795   21.8131   -1.5429 C   0  0  0  0  0  0  0  0  0  0  0  0
    1.4015   21.3363   -2.8782 C   0  0  0  0  0  0  0  0  0  0  0  0
    2.4425   22.3751   -3.3815 C   0  0  0  0  0  0  0  0  0  0  0  0
    2.7497   23.2964   -1.1133 C   0  0  0  0  0  0  0  0  0  0  0  0
    3.3755   22.7600   -2.3088 N   0  0  0  0  0  0  0  0  0  0  0  0
    4.7389   22.6718   -2.5178 C   0  0  0  0  0  0  0  0  0  0  0  0
    6.5149   22.9547   -4.0408 C   0  0  0  0  0  0  0  0  0  0  0  0
    7.0317   22.1410   -2.0582 C   0  0  0  0  0  0  0  0  0  0  0  0
    5.7132   22.1695   -1.6117 C   0  0  0  0  0  0  0  0  0  0  0  0
    5.7549   21.6001   -0.2984 C   0  0  0  0  0  0  0  0  0  0  0  0
    7.0661   21.3106    0.0180 C   0  0  0  0  0  0  0  0  0  0  0  0
    5.2078   23.0528   -3.7450 N   0  0  0  0  0  0  0  0  0  0  0  0
    7.5015   22.5153   -3.2546 N   0  0  0  0  0  0  0  0  0  0  0  0
    7.8290   21.6433   -1.0655 N   0  0  0  0  0  0  0  0  0  0  0  0
    8.8282   21.5320   -1.1560 H   0  0  0  0  0  0  0  0  0  0  0  0
    1.8587   19.8779   -2.8020 C   0  0  0  0  0  0  0  0  0  0  0  0
    0.9843   18.8720   -3.2664 C   0  0  0  0  0  0  0  0  0  0  0  0
    1.3285   17.5181   -3.2230 C   0  0  0  0  0  0  0  0  0  0  0  0
    2.5852   17.1591   -2.7271 C   0  0  0  0  0  0  0  0  0  0  0  0
    3.4738   18.1358   -2.2846 C   0  0  0  0  0  0  0  0  0  0  0  0
    3.1117   19.4819   -2.3241 C   0  0  0  0  0  0  0  0  0  0  0  0
    0.7045   15.1068   -3.5266 C   0  0  0  0  0  0  0  0  0  0  0  0
    0.4849   16.4682   -3.6504 N   0  0  0  0  0  0  0  0  0  0  0  0
    1.6953   14.5911   -3.0161 O   0  0  0  0  0  0  0  0  0  0  0  0
   -0.3602   16.7764   -4.1011 H   0  0  0  0  0  0  0  0  0  0  0  0
   -0.3605   14.1921   -4.0667 C   0  0  0  0  0  0  0  0  0  0  0  0
   -0.3930   12.8053   -3.8567 C   0  0  0  0  0  0  0  0  0  0  0  0
   -1.4239   12.0298   -4.4005 C   0  0  0  0  0  0  0  0  0  0  0  0
   -2.4299   12.6262   -5.1572 C   0  0  0  0  0  0  0  0  0  0  0  0
   -2.4113   14.0003   -5.3737 C   0  0  0  0  0  0  0  0  0  0  0  0
   -1.3844   14.7766   -4.8320 C   0  0  0  0  0  0  0  0  0  0  0  0
  1  2  1  0  0  0
  2  3  1  0  0  0
  3  4  1  0  0  0
  3 17  1  0  0  0
  4  6  1  0  0  0
  5  6  1  0  0  0
  5  1  1  0  0  0
  8 13  2  0  0  0
  9 14  2  0  0  0
 10 11  1  0  0  0
 10  7  2  0  0  0
 12 15  1  0  0  0
 18 19  2  0  0  0
 19 24  1  0  0  0
 20 21  2  0  0  0
 22 17  2  0  0  0
 23 27  1  0  0  0
 28 29  2  0  0  0
 30 31  2  0  0  0
 32 27  2  0  0  0
  6  7  1  0  0  0
 15  9  1  0  0  0
 24 23  1  0  0  0
  7 13  1  0  0  0
  8 14  1  0  0  0
  9 10  1  0  0  0
 11 12  2  0  0  0
 17 18  1  0  0  0
 19 20  1  0  0  0
 21 22  1  0  0  0
 23 25  2  0  0  0
 27 28  1  0  0  0
 29 30  1  0  0  0
 31 32  1  0  0  0
 15 16  1  0  0  0
 24 26  1  0  0  0
M  END
> <minimizedAffinity>
-9.51347

$$$$
CHEMBL4448573


 32 36  0  0  0  0  0  0  0  0999 V2000
    2.6013   14.1534   -4.2886 C   0  0  0  0  0  0  0  0  0  0  0  0
    2.0080   13.2861   -3.1753 C   0  0  0  0  0  0  0  0  0  0  0  0
    0.5449   13.6692   -2.8438 C   0  0  0  0  0  0  0  0  0  0  0  0
    0.4337   15.2036   -2.6218 C   0  0  0  0  0  0  0  0  0  0  0  0
    2.4915   15.6281   -3.9152 C   0  0  0  0  0  0  0  0  0  0  0  0
    1.0908   15.9501   -3.7082 N   0  0  0  0  0  0  0  0  0  0  0  0
    0.3947   16.9318   -4.3880 C   0  0  0  0  0  0  0  0  0  0  0  0
    0.5301   18.8478   -5.7533 C   0  0  0  0  0  0  0  0  0  0  0  0
   -1.4870   18.2276   -5.1160 C   0  0  0  0  0  0  0  0  0  0  0  0
   -1.0116   17.1439   -4.3824 C   0  0  0  0  0  0  0  0  0  0  0  0
   -2.1742   16.5704   -3.7740 C   0  0  0  0  0  0  0  0  0  0  0  0
   -3.2862   17.2695   -4.1958 C   0  0  0  0  0  0  0  0  0  0  0  0
    1.1303   17.8376   -5.1017 N   0  0  0  0  0  0  0  0  0  0  0  0
   -0.7766   19.1167   -5.8209 N   0  0  0  0  0  0  0  0  0  0  0  0
   -2.8490   18.2764   -5.0093 N   0  0  0  0  0  0  0  0  0  0  0  0
   -3.4190   18.9763   -5.4611 H   0  0  0  0  0  0  0  0  0  0  0  0
   -0.4434   13.0376   -3.8267 C   0  0  0  0  0  0  0  0  0  0  0  0
   -1.5991   13.7654   -4.1821 C   0  0  0  0  0  0  0  0  0  0  0  0
   -2.5504   13.2521   -5.0682 C   0  0  0  0  0  0  0  0  0  0  0  0
   -2.3326   11.9922   -5.6330 C   0  0  0  0  0  0  0  0  0  0  0  0
   -1.1882   11.2652   -5.3150 C   0  0  0  0  0  0  0  0  0  0  0  0
   -0.2534   11.7861   -4.4209 C   0  0  0  0  0  0  0  0  0  0  0  0
   -3.8947   14.8564   -6.4520 C   0  0  0  0  0  0  0  0  0  0  0  0
   -3.7361   13.9245   -5.4404 N   0  0  0  0  0  0  0  0  0  0  0  0
   -3.0031   15.2540   -7.1970 O   0  0  0  0  0  0  0  0  0  0  0  0
   -4.5382   13.6848   -4.8821 H   0  0  0  0  0  0  0  0  0  0  0  0
   -5.2736   15.4255   -6.6452 C   0  0  0  0  0  0  0  0  0  0  0  0
   -5.5772   16.4858   -7.5125 C   0  0  0  0  0  0  0  0  0  0  0  0
   -6.8917   16.9534   -7.6277 C   0  0  0  0  0  0  0  0  0  0  0  0
   -7.9142   16.3713   -6.8821 C   0  0  0  0  0  0  0  0  0  0  0  0
   -7.6286   15.3190   -6.0182 C   0  0  0  0  0  0  0  0  0  0  0  0
   -6.3183   14.8500   -5.9016 C   0  0  0  0  0  0  0  0  0  0  0  0
  1  2  1  0  0  0
  2  3  1  0  0  0
  3  4  1  0  0  0
  3 17  1  0  0  0
  4  6  1  0  0  0
  5  6  1  0  0  0
  5  1  1  0  0  0
  8 13  2  0  0  0
  9 14  2  0  0  0
 10 11  1  0  0  0
 10  7  2  0  0  0
 12 15  1  0  0  0
 18 19  2  0  0  0
 19 24  1  0  0  0
 20 21  2  0  0  0
 22 17  2  0  0  0
 23 27  1  0  0  0
 28 29  2  0  0  0
 30 31  2  0  0  0
 32 27  2  0  0  0
  6  7  1  0  0  0
 15  9  1  0  0  0
 24 23  1  0  0  0
  7 13  1  0  0  0
  8 14  1  0  0  0
  9 10  1  0  0  0
 11 12  2  0  0  0
 17 18  1  0  0  0
 19 20  1  0  0  0
 21 22  1  0  0  0
 23 25  2  0  0  0
 27 28  1  0  0  0
 29 30  1  0  0  0
 31 32  1  0  0  0
 15 16  1  0  0  0
 24 26  1  0  0  0
M  END
> <minimizedAffinity>
-9.30851

$$$$
CHEMBL4545883


 29 32  0  0  0  0  0  0  0  0999 V2000
   -0.9037   16.4931   -4.2499 C   0  0  0  0  0  0  0  0  0  0  0  0
    0.2949   15.9239   -3.7751 C   0  0  0  0  0  0  0  0  0  0  0  0
    1.4194   16.6406   -3.2927 C   0  0  0  0  0  0  0  0  0  0  0  0
    2.5209   15.9417   -2.8294 C   0  0  0  0  0  0  0  0  0  0  0  0
    1.5021   13.9429   -3.2982 C   0  0  0  0  0  0  0  0  0  0  0  0
    0.3435   14.5272   -3.7855 C   0  0  0  0  0  0  0  0  0  0  0  0
   -1.7456   14.3833   -4.6899 C   0  0  0  0  0  0  0  0  0  0  0  0
    2.5876   14.6011   -2.8164 N   0  0  0  0  0  0  0  0  0  0  0  0
   -0.6567   13.7568   -4.2285 N   0  0  0  0  0  0  0  0  0  0  0  0
   -1.8960   15.7190   -4.7192 N   0  0  0  0  0  0  0  0  0  0  0  0
   -2.8611   13.5458   -5.1727 C   0  0  0  0  0  0  0  0  0  0  0  0
   -3.9717   14.1069   -5.8157 C   0  0  0  0  0  0  0  0  0  0  0  0
   -5.0051   13.2922   -6.2501 C   0  0  0  0  0  0  0  0  0  0  0  0
   -3.9466   11.4146   -5.4760 C   0  0  0  0  0  0  0  0  0  0  0  0
   -2.8687   12.1528   -5.0088 C   0  0  0  0  0  0  0  0  0  0  0  0
   -5.0168   11.9552   -6.0921 N   0  0  0  0  0  0  0  0  0  0  0  0
   -1.0643   17.8765   -4.2699 N   0  0  0  0  0  0  0  0  0  0  0  0
   -1.6552   18.2409   -3.5347 H   0  0  0  0  0  0  0  0  0  0  0  0
   -0.9578   17.8686   -6.7485 C   0  0  0  0  0  0  0  0  0  0  0  0
   -1.0019   18.7365   -5.4788 C   0  0  0  0  0  0  0  0  0  0  0  0
    0.3522   19.4805   -5.3935 C   0  0  0  0  0  0  0  0  0  0  0  0
   -2.1823   19.7777   -5.4979 C   0  0  0  0  0  0  0  0  0  0  0  0
   -3.1334   20.9179   -7.4405 C   0  0  0  0  0  0  0  0  0  0  0  0
   -3.9144   20.7222   -8.7458 C   0  0  0  0  0  0  0  0  0  0  0  0
   -5.1610   19.8556   -8.5750 C   0  0  0  0  0  0  0  0  0  0  0  0
   -5.6185   19.8654   -7.1240 C   0  0  0  0  0  0  0  0  0  0  0  0
   -4.5055   19.3521   -6.1815 C   0  0  0  0  0  0  0  0  0  0  0  0
   -4.6345   17.8316   -6.0330 C   0  0  0  0  0  0  0  0  0  0  0  0
   -3.1307   19.6856   -6.6416 N   0  0  0  0  0  0  0  0  0  0  0  0
 19 20  1  0  0  0
 20 21  1  0  0  0
 20 17  1  0  0  0
 20 22  1  0  0  0
  1  2  2  0  0  0
  3  4  2  0  0  0
  5  8  2  0  0  0
  6  9  2  0  0  0
  6  2  1  0  0  0
  7 10  2  0  0  0
  7 11  1  0  0  0
 12 13  2  0  0  0
 14 16  2  0  0  0
 15 11  2  0  0  0
 22 29  1  0  0  0
 23 29  1  0  0  0
 23 24  1  0  0  0
 24 25  1  0  0  0
 25 26  1  0  0  0
 26 27  1  0  0  0
 27 28  1  0  0  0
 27 29  1  0  0  0
 17  1  1  0  0  0
  1 10  1  0  0  0
  2  3  1  0  0  0
  4  8  1  0  0  0
  5  6  1  0  0  0
  7  9  1  0  0  0
 11 12  1  0  0  0
 13 16  1  0  0  0
 14 15  1  0  0  0
 17 18  1  0  0  0
M  END
> <minimizedAffinity>
-8.94623

$$$$
CHEMBL4545883


 29 32  0  0  0  0  0  0  0  0999 V2000
   -1.1729   15.8869   -5.1673 C   0  0  0  0  0  0  0  0  0  0  0  0
   -0.9880   14.5436   -4.7834 C   0  0  0  0  0  0  0  0  0  0  0  0
   -1.7607   13.4403   -5.2268 C   0  0  0  0  0  0  0  0  0  0  0  0
   -1.4419   12.1679   -4.7843 C   0  0  0  0  0  0  0  0  0  0  0  0
    0.2830   12.9941   -3.5215 C   0  0  0  0  0  0  0  0  0  0  0  0
    0.0641   14.3114   -3.8933 C   0  0  0  0  0  0  0  0  0  0  0  0
    0.5799   16.5313   -3.8013 C   0  0  0  0  0  0  0  0  0  0  0  0
   -0.4290   11.9164   -3.9402 N   0  0  0  0  0  0  0  0  0  0  0  0
    0.8470   15.2809   -3.4062 N   0  0  0  0  0  0  0  0  0  0  0  0
   -0.4033   16.8621   -4.6566 N   0  0  0  0  0  0  0  0  0  0  0  0
    1.4418   17.6101   -3.2797 C   0  0  0  0  0  0  0  0  0  0  0  0
    1.0463   18.9527   -3.3336 C   0  0  0  0  0  0  0  0  0  0  0  0
    1.8832   19.9414   -2.8413 C   0  0  0  0  0  0  0  0  0  0  0  0
    3.4691   18.4015   -2.2425 C   0  0  0  0  0  0  0  0  0  0  0  0
    2.6970   17.3483   -2.7110 C   0  0  0  0  0  0  0  0  0  0  0  0
    3.0897   19.6938   -2.2972 N   0  0  0  0  0  0  0  0  0  0  0  0
   -2.1842   16.2286   -6.0621 N   0  0  0  0  0  0  0  0  0  0  0  0
   -1.8691   16.3916   -7.0090 H   0  0  0  0  0  0  0  0  0  0  0  0
   -3.3061   18.4399   -5.9819 C   0  0  0  0  0  0  0  0  0  0  0  0
   -3.4452   16.9312   -5.7141 C   0  0  0  0  0  0  0  0  0  0  0  0
   -3.6126   16.7577   -4.1856 C   0  0  0  0  0  0  0  0  0  0  0  0
   -4.6759   16.2947   -6.4611 C   0  0  0  0  0  0  0  0  0  0  0  0
   -4.8160   13.8570   -6.5891 C   0  0  0  0  0  0  0  0  0  0  0  0
   -5.2007   12.5855   -5.8227 C   0  0  0  0  0  0  0  0  0  0  0  0
   -6.5664   12.6834   -5.1450 C   0  0  0  0  0  0  0  0  0  0  0  0
   -7.4214   13.7415   -5.8262 C   0  0  0  0  0  0  0  0  0  0  0  0
   -6.7333   15.1256   -5.7928 C   0  0  0  0  0  0  0  0  0  0  0  0
   -7.1463   15.8613   -4.5126 C   0  0  0  0  0  0  0  0  0  0  0  0
   -5.2489   15.0578   -5.8628 N   0  0  0  0  0  0  0  0  0  0  0  0
 19 20  1  0  0  0
 20 21  1  0  0  0
 20 17  1  0  0  0
 20 22  1  0  0  0
  1  2  2  0  0  0
  3  4  2  0  0  0
  5  8  2  0  0  0
  6  9  2  0  0  0
  6  2  1  0  0  0
  7 10  2  0  0  0
  7 11  1  0  0  0
 12 13  2  0  0  0
 14 16  2  0  0  0
 15 11  2  0  0  0
 22 29  1  0  0  0
 23 29  1  0  0  0
 23 24  1  0  0  0
 24 25  1  0  0  0
 25 26  1  0  0  0
 26 27  1  0  0  0
 27 28  1  0  0  0
 27 29  1  0  0  0
 17  1  1  0  0  0
  1 10  1  0  0  0
  2  3  1  0  0  0
  4  8  1  0  0  0
  5  6  1  0  0  0
  7  9  1  0  0  0
 11 12  1  0  0  0
 13 16  1  0  0  0
 14 15  1  0  0  0
 17 18  1  0  0  0
M  END
> <minimizedAffinity>
-8.83797

$$$$
CHEMBL4545883


 29 32  0  0  0  0  0  0  0  0999 V2000
   -1.2651   15.5676   -5.3986 C   0  0  0  0  0  0  0  0  0  0  0  0
   -1.1264   14.2396   -4.9477 C   0  0  0  0  0  0  0  0  0  0  0  0
   -1.8851   13.1282   -5.3951 C   0  0  0  0  0  0  0  0  0  0  0  0
   -1.6156   11.8719   -4.8798 C   0  0  0  0  0  0  0  0  0  0  0  0
    0.0351   12.7294   -3.5409 C   0  0  0  0  0  0  0  0  0  0  0  0
   -0.1388   14.0323   -3.9809 C   0  0  0  0  0  0  0  0  0  0  0  0
    0.4038   16.2475   -3.9474 C   0  0  0  0  0  0  0  0  0  0  0  0
   -0.6643   11.6439   -3.9607 N   0  0  0  0  0  0  0  0  0  0  0  0
    0.6252   15.0117   -3.4838 N   0  0  0  0  0  0  0  0  0  0  0  0
   -0.5159   16.5539   -4.8790 N   0  0  0  0  0  0  0  0  0  0  0  0
    1.2460   17.3366   -3.4152 C   0  0  0  0  0  0  0  0  0  0  0  0
    0.8384   18.6750   -3.4808 C   0  0  0  0  0  0  0  0  0  0  0  0
    1.6570   19.6737   -2.9780 C   0  0  0  0  0  0  0  0  0  0  0  0
    3.2473   18.1516   -2.3462 C   0  0  0  0  0  0  0  0  0  0  0  0
    2.4937   17.0892   -2.8240 C   0  0  0  0  0  0  0  0  0  0  0  0
    2.8562   19.4400   -2.4123 N   0  0  0  0  0  0  0  0  0  0  0  0
   -2.2101   15.8835   -6.3719 N   0  0  0  0  0  0  0  0  0  0  0  0
   -1.8193   16.1360   -7.2697 H   0  0  0  0  0  0  0  0  0  0  0  0
   -3.6903   16.8643   -4.6393 C   0  0  0  0  0  0  0  0  0  0  0  0
   -3.5572   16.4534   -6.1160 C   0  0  0  0  0  0  0  0  0  0  0  0
   -4.5540   15.2938   -6.3534 C   0  0  0  0  0  0  0  0  0  0  0  0
   -3.8712   17.6374   -7.1045 C   0  0  0  0  0  0  0  0  0  0  0  0
   -5.1319   19.6900   -6.6852 C   0  0  0  0  0  0  0  0  0  0  0  0
   -5.1673   20.9910   -5.8738 C   0  0  0  0  0  0  0  0  0  0  0  0
   -3.8386   21.7450   -5.8907 C   0  0  0  0  0  0  0  0  0  0  0  0
   -3.0163   21.3426   -7.1058 C   0  0  0  0  0  0  0  0  0  0  0  0
   -2.7413   19.8212   -7.1181 C   0  0  0  0  0  0  0  0  0  0  0  0
   -1.4400   19.5396   -6.3577 C   0  0  0  0  0  0  0  0  0  0  0  0
   -3.8398   19.0097   -6.5285 N   0  0  0  0  0  0  0  0  0  0  0  0
 19 20  1  0  0  0
 20 21  1  0  0  0
 20 17  1  0  0  0
 20 22  1  0  0  0
  1  2  2  0  0  0
  3  4  2  0  0  0
  5  8  2  0  0  0
  6  9  2  0  0  0
  6  2  1  0  0  0
  7 10  2  0  0  0
  7 11  1  0  0  0
 12 13  2  0  0  0
 14 16  2  0  0  0
 15 11  2  0  0  0
 22 29  1  0  0  0
 23 29  1  0  0  0
 23 24  1  0  0  0
 24 25  1  0  0  0
 25 26  1  0  0  0
 26 27  1  0  0  0
 27 28  1  0  0  0
 27 29  1  0  0  0
 17  1  1  0  0  0
  1 10  1  0  0  0
  2  3  1  0  0  0
  4  8  1  0  0  0
  5  6  1  0  0  0
  7  9  1  0  0  0
 11 12  1  0  0  0
 13 16  1  0  0  0
 14 15  1  0  0  0
 17 18  1  0  0  0
M  END
> <minimizedAffinity>
-8.80222

$$$$
CHEMBL4545883


 29 32  0  0  0  0  0  0  0  0999 V2000
   -2.3082   17.9263   -6.7775 C   0  0  0  0  0  0  0  0  0  0  0  0
   -2.6922   19.2667   -6.9821 C   0  0  0  0  0  0  0  0  0  0  0  0
   -3.7344   19.7099   -7.8356 C   0  0  0  0  0  0  0  0  0  0  0  0
   -4.0178   21.0627   -7.9132 C   0  0  0  0  0  0  0  0  0  0  0  0
   -2.3445   21.5415   -6.4221 C   0  0  0  0  0  0  0  0  0  0  0  0
   -1.9678   20.2176   -6.2581 C   0  0  0  0  0  0  0  0  0  0  0  0
   -0.6438   18.6123   -5.3240 C   0  0  0  0  0  0  0  0  0  0  0  0
   -3.3463   21.9947   -7.2188 N   0  0  0  0  0  0  0  0  0  0  0  0
   -0.9602   19.9080   -5.4342 N   0  0  0  0  0  0  0  0  0  0  0  0
   -1.2790   17.6195   -5.9708 N   0  0  0  0  0  0  0  0  0  0  0  0
    0.4595   18.2550   -4.4108 C   0  0  0  0  0  0  0  0  0  0  0  0
    1.1580   19.2322   -3.6903 C   0  0  0  0  0  0  0  0  0  0  0  0
    2.1936   18.8627   -2.8470 C   0  0  0  0  0  0  0  0  0  0  0  0
    1.9145   16.6475   -3.3568 C   0  0  0  0  0  0  0  0  0  0  0  0
    0.8667   16.9260   -4.2224 C   0  0  0  0  0  0  0  0  0  0  0  0
    2.5886   17.5883   -2.6658 N   0  0  0  0  0  0  0  0  0  0  0  0
   -2.9735   16.8966   -7.4387 N   0  0  0  0  0  0  0  0  0  0  0  0
   -3.0676   17.0306   -8.4365 H   0  0  0  0  0  0  0  0  0  0  0  0
   -5.3984   16.3728   -7.4119 C   0  0  0  0  0  0  0  0  0  0  0  0
   -4.0129   16.0178   -6.8449 C   0  0  0  0  0  0  0  0  0  0  0  0
   -4.0405   16.3626   -5.3367 C   0  0  0  0  0  0  0  0  0  0  0  0
   -3.6510   14.4981   -7.0380 C   0  0  0  0  0  0  0  0  0  0  0  0
   -1.5574   14.1957   -5.8118 C   0  0  0  0  0  0  0  0  0  0  0  0
   -0.9389   13.7037   -4.4974 C   0  0  0  0  0  0  0  0  0  0  0  0
   -1.4516   12.3293   -4.0705 C   0  0  0  0  0  0  0  0  0  0  0  0
   -1.9908   11.5680   -5.2723 C   0  0  0  0  0  0  0  0  0  0  0  0
   -3.1327   12.3477   -5.9640 C   0  0  0  0  0  0  0  0  0  0  0  0
   -4.4699   11.9500   -5.3281 C   0  0  0  0  0  0  0  0  0  0  0  0
   -2.9762   13.8254   -5.8943 N   0  0  0  0  0  0  0  0  0  0  0  0
 19 20  1  0  0  0
 20 21  1  0  0  0
 20 17  1  0  0  0
 20 22  1  0  0  0
  1  2  2  0  0  0
  3  4  2  0  0  0
  5  8  2  0  0  0
  6  9  2  0  0  0
  6  2  1  0  0  0
  7 10  2  0  0  0
  7 11  1  0  0  0
 12 13  2  0  0  0
 14 16  2  0  0  0
 15 11  2  0  0  0
 22 29  1  0  0  0
 23 29  1  0  0  0
 23 24  1  0  0  0
 24 25  1  0  0  0
 25 26  1  0  0  0
 26 27  1  0  0  0
 27 28  1  0  0  0
 27 29  1  0  0  0
 17  1  1  0  0  0
  1 10  1  0  0  0
  2  3  1  0  0  0
  4  8  1  0  0  0
  5  6  1  0  0  0
  7  9  1  0  0  0
 11 12  1  0  0  0
 13 16  1  0  0  0
 14 15  1  0  0  0
 17 18  1  0  0  0
M  END
> <minimizedAffinity>
-8.71918

$$$$
CHEMBL4545883


 29 32  0  0  0  0  0  0  0  0999 V2000
   -0.8888   15.6152   -4.1327 C   0  0  0  0  0  0  0  0  0  0  0  0
    0.1600   14.7216   -3.8365 C   0  0  0  0  0  0  0  0  0  0  0  0
    0.0454   13.3117   -3.7378 C   0  0  0  0  0  0  0  0  0  0  0  0
    1.1742   12.5571   -3.4677 C   0  0  0  0  0  0  0  0  0  0  0  0
    2.4659   14.4478   -3.3708 C   0  0  0  0  0  0  0  0  0  0  0  0
    1.4125   15.3086   -3.6371 C   0  0  0  0  0  0  0  0  0  0  0  0
    0.5683   17.4037   -3.9540 C   0  0  0  0  0  0  0  0  0  0  0  0
    2.3904   13.0948   -3.2852 N   0  0  0  0  0  0  0  0  0  0  0  0
    1.6280   16.6277   -3.6974 N   0  0  0  0  0  0  0  0  0  0  0  0
   -0.6761   16.9410   -4.1661 N   0  0  0  0  0  0  0  0  0  0  0  0
    0.7929   18.8604   -4.0334 C   0  0  0  0  0  0  0  0  0  0  0  0
    0.5016   19.5829   -5.1974 C   0  0  0  0  0  0  0  0  0  0  0  0
    0.7315   20.9488   -5.2404 C   0  0  0  0  0  0  0  0  0  0  0  0
    1.5093   20.9585   -3.0863 C   0  0  0  0  0  0  0  0  0  0  0  0
    1.3118   19.5916   -2.9547 C   0  0  0  0  0  0  0  0  0  0  0  0
    1.2318   21.6532   -4.2077 N   0  0  0  0  0  0  0  0  0  0  0  0
   -2.1758   15.1354   -4.3637 N   0  0  0  0  0  0  0  0  0  0  0  0
   -2.3508   14.2099   -3.9959 H   0  0  0  0  0  0  0  0  0  0  0  0
   -3.9845   14.3407   -5.8645 C   0  0  0  0  0  0  0  0  0  0  0  0
   -3.0431   15.5052   -5.5109 C   0  0  0  0  0  0  0  0  0  0  0  0
   -2.0879   15.6945   -6.7135 C   0  0  0  0  0  0  0  0  0  0  0  0
   -3.8182   16.8460   -5.2291 C   0  0  0  0  0  0  0  0  0  0  0  0
   -3.0745   19.0232   -6.0566 C   0  0  0  0  0  0  0  0  0  0  0  0
   -2.9362   19.9054   -7.3035 C   0  0  0  0  0  0  0  0  0  0  0  0
   -4.2104   19.9592   -8.1447 C   0  0  0  0  0  0  0  0  0  0  0  0
   -5.4219   19.6065   -7.2947 C   0  0  0  0  0  0  0  0  0  0  0  0
   -5.2793   18.1987   -6.6717 C   0  0  0  0  0  0  0  0  0  0  0  0
   -5.8674   17.1609   -7.6350 C   0  0  0  0  0  0  0  0  0  0  0  0
   -3.8759   17.8273   -6.3470 N   0  0  0  0  0  0  0  0  0  0  0  0
 19 20  1  0  0  0
 20 21  1  0  0  0
 20 17  1  0  0  0
 20 22  1  0  0  0
  1  2  2  0  0  0
  3  4  2  0  0  0
  5  8  2  0  0  0
  6  9  2  0  0  0
  6  2  1  0  0  0
  7 10  2  0  0  0
  7 11  1  0  0  0
 12 13  2  0  0  0
 14 16  2  0  0  0
 15 11  2  0  0  0
 22 29  1  0  0  0
 23 29  1  0  0  0
 23 24  1  0  0  0
 24 25  1  0  0  0
 25 26  1  0  0  0
 26 27  1  0  0  0
 27 28  1  0  0  0
 27 29  1  0  0  0
 17  1  1  0  0  0
  1 10  1  0  0  0
  2  3  1  0  0  0
  4  8  1  0  0  0
  5  6  1  0  0  0
  7  9  1  0  0  0
 11 12  1  0  0  0
 13 16  1  0  0  0
 14 15  1  0  0  0
 17 18  1  0  0  0
M  END
> <minimizedAffinity>
-8.70474

$$$$
CHEMBL4545883


 29 32  0  0  0  0  0  0  0  0999 V2000
   -0.9951   18.6800   -6.1390 C   0  0  0  0  0  0  0  0  0  0  0  0
   -0.5895   19.9424   -5.6613 C   0  0  0  0  0  0  0  0  0  0  0  0
   -1.0126   21.1967   -6.1697 C   0  0  0  0  0  0  0  0  0  0  0  0
   -0.5498   22.3592   -5.5772 C   0  0  0  0  0  0  0  0  0  0  0  0
    0.6948   21.1502   -4.0800 C   0  0  0  0  0  0  0  0  0  0  0  0
    0.3018   19.9206   -4.5851 C   0  0  0  0  0  0  0  0  0  0  0  0
    0.3556   17.6404   -4.5743 C   0  0  0  0  0  0  0  0  0  0  0  0
    0.2958   22.3657   -4.5348 N   0  0  0  0  0  0  0  0  0  0  0  0
    0.7707   18.7937   -4.0372 N   0  0  0  0  0  0  0  0  0  0  0  0
   -0.5026   17.5501   -5.6054 N   0  0  0  0  0  0  0  0  0  0  0  0
    0.8570   16.3888   -3.9736 C   0  0  0  0  0  0  0  0  0  0  0  0
   -0.0032   15.3236   -3.6778 C   0  0  0  0  0  0  0  0  0  0  0  0
    0.4997   14.1653   -3.1073 C   0  0  0  0  0  0  0  0  0  0  0  0
    2.6285   15.0098   -3.0947 C   0  0  0  0  0  0  0  0  0  0  0  0
    2.2128   16.2044   -3.6649 C   0  0  0  0  0  0  0  0  0  0  0  0
    1.8000   13.9860   -2.8073 N   0  0  0  0  0  0  0  0  0  0  0  0
   -1.8930   18.5861   -7.1997 N   0  0  0  0  0  0  0  0  0  0  0  0
   -1.6400   19.1310   -8.0130 H   0  0  0  0  0  0  0  0  0  0  0  0
   -4.1553   19.4538   -7.7329 C   0  0  0  0  0  0  0  0  0  0  0  0
   -3.3486   18.3186   -7.0788 C   0  0  0  0  0  0  0  0  0  0  0  0
   -3.6573   18.3609   -5.5631 C   0  0  0  0  0  0  0  0  0  0  0  0
   -3.7168   16.9023   -7.6588 C   0  0  0  0  0  0  0  0  0  0  0  0
   -2.3037   14.9748   -7.1433 C   0  0  0  0  0  0  0  0  0  0  0  0
   -1.9462   13.9386   -6.0705 C   0  0  0  0  0  0  0  0  0  0  0  0
   -3.1722   13.2774   -5.4429 C   0  0  0  0  0  0  0  0  0  0  0  0
   -4.3676   13.3815   -6.3782 C   0  0  0  0  0  0  0  0  0  0  0  0
   -4.6946   14.8561   -6.7085 C   0  0  0  0  0  0  0  0  0  0  0  0
   -5.6799   15.3979   -5.6662 C   0  0  0  0  0  0  0  0  0  0  0  0
   -3.4976   15.7380   -6.7575 N   0  0  0  0  0  0  0  0  0  0  0  0
 19 20  1  0  0  0
 20 21  1  0  0  0
 20 17  1  0  0  0
 20 22  1  0  0  0
  1  2  2  0  0  0
  3  4  2  0  0  0
  5  8  2  0  0  0
  6  9  2  0  0  0
  6  2  1  0  0  0
  7 10  2  0  0  0
  7 11  1  0  0  0
 12 13  2  0  0  0
 14 16  2  0  0  0
 15 11  2  0  0  0
 22 29  1  0  0  0
 23 29  1  0  0  0
 23 24  1  0  0  0
 24 25  1  0  0  0
 25 26  1  0  0  0
 26 27  1  0  0  0
 27 28  1  0  0  0
 27 29  1  0  0  0
 17  1  1  0  0  0
  1 10  1  0  0  0
  2  3  1  0  0  0
  4  8  1  0  0  0
  5  6  1  0  0  0
  7  9  1  0  0  0
 11 12  1  0  0  0
 13 16  1  0  0  0
 14 15  1  0  0  0
 17 18  1  0  0  0
M  END
> <minimizedAffinity>
-8.68811

$$$$
CHEMBL4545883


 29 32  0  0  0  0  0  0  0  0999 V2000
   -3.7494   18.3566   -5.8692 C   0  0  0  0  0  0  0  0  0  0  0  0
   -4.3166   19.1909   -6.8533 C   0  0  0  0  0  0  0  0  0  0  0  0
   -3.8640   20.4889   -7.2015 C   0  0  0  0  0  0  0  0  0  0  0  0
   -4.5059   21.1817   -8.2136 C   0  0  0  0  0  0  0  0  0  0  0  0
   -5.9739   19.4495   -8.5252 C   0  0  0  0  0  0  0  0  0  0  0  0
   -5.4150   18.6583   -7.5337 C   0  0  0  0  0  0  0  0  0  0  0  0
   -5.3445   16.7381   -6.3046 C   0  0  0  0  0  0  0  0  0  0  0  0
   -5.5541   20.6878   -8.8912 N   0  0  0  0  0  0  0  0  0  0  0  0
   -5.9277   17.4496   -7.2767 N   0  0  0  0  0  0  0  0  0  0  0  0
   -4.2819   17.1546   -5.5940 N   0  0  0  0  0  0  0  0  0  0  0  0
   -5.8935   15.3985   -6.0168 C   0  0  0  0  0  0  0  0  0  0  0  0
   -7.2036   15.2297   -5.5508 C   0  0  0  0  0  0  0  0  0  0  0  0
   -7.6850   13.9580   -5.2835 C   0  0  0  0  0  0  0  0  0  0  0  0
   -5.6979   12.9986   -5.8969 C   0  0  0  0  0  0  0  0  0  0  0  0
   -5.1339   14.2320   -6.1893 C   0  0  0  0  0  0  0  0  0  0  0  0
   -6.9577   12.8365   -5.4456 N   0  0  0  0  0  0  0  0  0  0  0  0
   -2.6415   18.7831   -5.1406 N   0  0  0  0  0  0  0  0  0  0  0  0
   -2.7514   19.6868   -4.7005 H   0  0  0  0  0  0  0  0  0  0  0  0
   -0.4196   19.6561   -5.8161 C   0  0  0  0  0  0  0  0  0  0  0  0
   -1.2305   18.4112   -5.4162 C   0  0  0  0  0  0  0  0  0  0  0  0
   -1.2762   17.4852   -6.6551 C   0  0  0  0  0  0  0  0  0  0  0  0
   -0.5968   17.6415   -4.1981 C   0  0  0  0  0  0  0  0  0  0  0  0
   -1.7449   15.4837   -4.1346 C   0  0  0  0  0  0  0  0  0  0  0  0
   -1.6492   14.0051   -4.5307 C   0  0  0  0  0  0  0  0  0  0  0  0
   -0.3133   13.3678   -4.1522 C   0  0  0  0  0  0  0  0  0  0  0  0
    0.3464   14.1493   -3.0259 C   0  0  0  0  0  0  0  0  0  0  0  0
    0.5789   15.6241   -3.4276 C   0  0  0  0  0  0  0  0  0  0  0  0
    1.9545   15.7529   -4.0924 C   0  0  0  0  0  0  0  0  0  0  0  0
   -0.4612   16.1661   -4.3427 N   0  0  0  0  0  0  0  0  0  0  0  0
 19 20  1  0  0  0
 20 21  1  0  0  0
 20 17  1  0  0  0
 20 22  1  0  0  0
  1  2  2  0  0  0
  3  4  2  0  0  0
  5  8  2  0  0  0
  6  9  2  0  0  0
  6  2  1  0  0  0
  7 10  2  0  0  0
  7 11  1  0  0  0
 12 13  2  0  0  0
 14 16  2  0  0  0
 15 11  2  0  0  0
 22 29  1  0  0  0
 23 29  1  0  0  0
 23 24  1  0  0  0
 24 25  1  0  0  0
 25 26  1  0  0  0
 26 27  1  0  0  0
 27 28  1  0  0  0
 27 29  1  0  0  0
 17  1  1  0  0  0
  1 10  1  0  0  0
  2  3  1  0  0  0
  4  8  1  0  0  0
  5  6  1  0  0  0
  7  9  1  0  0  0
 11 12  1  0  0  0
 13 16  1  0  0  0
 14 15  1  0  0  0
 17 18  1  0  0  0
M  END
> <minimizedAffinity>
-8.53718

$$$$
CHEMBL4545883


 29 32  0  0  0  0  0  0  0  0999 V2000
   -1.2418   15.1403   -4.1860 C   0  0  0  0  0  0  0  0  0  0  0  0
    0.0483   14.7555   -3.7691 C   0  0  0  0  0  0  0  0  0  0  0  0
    1.0616   15.6275   -3.2962 C   0  0  0  0  0  0  0  0  0  0  0  0
    2.2760   15.0995   -2.8923 C   0  0  0  0  0  0  0  0  0  0  0  0
    1.5705   12.9790   -3.4007 C   0  0  0  0  0  0  0  0  0  0  0  0
    0.3171   13.3855   -3.8310 C   0  0  0  0  0  0  0  0  0  0  0  0
   -1.7541   12.9376   -4.6751 C   0  0  0  0  0  0  0  0  0  0  0  0
    2.5547   13.7870   -2.9293 N   0  0  0  0  0  0  0  0  0  0  0  0
   -0.5637   12.4792   -4.2702 N   0  0  0  0  0  0  0  0  0  0  0  0
   -2.1152   14.2325   -4.6520 N   0  0  0  0  0  0  0  0  0  0  0  0
   -2.7394   11.9479   -5.1530 C   0  0  0  0  0  0  0  0  0  0  0  0
   -2.3755   10.9189   -6.0308 C   0  0  0  0  0  0  0  0  0  0  0  0
   -3.3275   10.0107   -6.4657 C   0  0  0  0  0  0  0  0  0  0  0  0
   -4.9700   11.0379   -5.2442 C   0  0  0  0  0  0  0  0  0  0  0  0
   -4.0849   11.9897   -4.7589 C   0  0  0  0  0  0  0  0  0  0  0  0
   -4.6203   10.0495   -6.0914 N   0  0  0  0  0  0  0  0  0  0  0  0
   -1.6202   16.4804   -4.1515 N   0  0  0  0  0  0  0  0  0  0  0  0
   -1.8815   16.8191   -3.2353 H   0  0  0  0  0  0  0  0  0  0  0  0
   -1.9434   16.5307   -6.6108 C   0  0  0  0  0  0  0  0  0  0  0  0
   -2.2346   17.2341   -5.2738 C   0  0  0  0  0  0  0  0  0  0  0  0
   -1.5033   18.5973   -5.3122 C   0  0  0  0  0  0  0  0  0  0  0  0
   -3.7733   17.4610   -5.0316 C   0  0  0  0  0  0  0  0  0  0  0  0
   -5.1370   18.6837   -6.6515 C   0  0  0  0  0  0  0  0  0  0  0  0
   -5.8302   18.6004   -8.0170 C   0  0  0  0  0  0  0  0  0  0  0  0
   -6.6631   17.3315   -8.1907 C   0  0  0  0  0  0  0  0  0  0  0  0
   -7.0474   16.7600   -6.8341 C   0  0  0  0  0  0  0  0  0  0  0  0
   -5.7953   16.4380   -5.9860 C   0  0  0  0  0  0  0  0  0  0  0  0
   -5.3495   14.9996   -6.2744 C   0  0  0  0  0  0  0  0  0  0  0  0
   -4.6554   17.3629   -6.2268 N   0  0  0  0  0  0  0  0  0  0  0  0
 19 20  1  0  0  0
 20 21  1  0  0  0
 20 17  1  0  0  0
 20 22  1  0  0  0
  1  2  2  0  0  0
  3  4  2  0  0  0
  5  8  2  0  0  0
  6  9  2  0  0  0
  6  2  1  0  0  0
  7 10  2  0  0  0
  7 11  1  0  0  0
 12 13  2  0  0  0
 14 16  2  0  0  0
 15 11  2  0  0  0
 22 29  1  0  0  0
 23 29  1  0  0  0
 23 24  1  0  0  0
 24 25  1  0  0  0
 25 26  1  0  0  0
 26 27  1  0  0  0
 27 28  1  0  0  0
 27 29  1  0  0  0
 17  1  1  0  0  0
  1 10  1  0  0  0
  2  3  1  0  0  0
  4  8  1  0  0  0
  5  6  1  0  0  0
  7  9  1  0  0  0
 11 12  1  0  0  0
 13 16  1  0  0  0
 14 15  1  0  0  0
 17 18  1  0  0  0
M  END
> <minimizedAffinity>
-8.51569

$$$$
CHEMBL4545883


 29 32  0  0  0  0  0  0  0  0999 V2000
   -4.4153   15.2918   -5.9338 C   0  0  0  0  0  0  0  0  0  0  0  0
   -5.8130   15.1165   -5.9775 C   0  0  0  0  0  0  0  0  0  0  0  0
   -6.5160   13.9531   -5.5737 C   0  0  0  0  0  0  0  0  0  0  0  0
   -7.8983   13.9368   -5.6469 C   0  0  0  0  0  0  0  0  0  0  0  0
   -7.9207   16.0697   -6.4852 C   0  0  0  0  0  0  0  0  0  0  0  0
   -6.5417   16.2080   -6.4577 C   0  0  0  0  0  0  0  0  0  0  0  0
   -4.6415   17.4150   -6.8251 C   0  0  0  0  0  0  0  0  0  0  0  0
   -8.6223   14.9759   -6.0917 N   0  0  0  0  0  0  0  0  0  0  0  0
   -5.9773   17.3476   -6.8733 N   0  0  0  0  0  0  0  0  0  0  0  0
   -3.8486   16.4263   -6.3766 N   0  0  0  0  0  0  0  0  0  0  0  0
   -4.0055   18.6701   -7.2712 C   0  0  0  0  0  0  0  0  0  0  0  0
   -4.6267   19.5148   -8.2000 C   0  0  0  0  0  0  0  0  0  0  0  0
   -3.9982   20.6823   -8.6028 C   0  0  0  0  0  0  0  0  0  0  0  0
   -2.1961   20.2632   -7.2530 C   0  0  0  0  0  0  0  0  0  0  0  0
   -2.7507   19.0769   -6.7945 C   0  0  0  0  0  0  0  0  0  0  0  0
   -2.7927   21.0744   -8.1492 N   0  0  0  0  0  0  0  0  0  0  0  0
   -3.5943   14.2720   -5.4585 N   0  0  0  0  0  0  0  0  0  0  0  0
   -4.0064   13.7079   -4.7275 H   0  0  0  0  0  0  0  0  0  0  0  0
   -1.5691   14.8039   -6.7892 C   0  0  0  0  0  0  0  0  0  0  0  0
   -2.1096   14.2946   -5.4418 C   0  0  0  0  0  0  0  0  0  0  0  0
   -1.6701   12.8169   -5.3087 C   0  0  0  0  0  0  0  0  0  0  0  0
   -1.5671   15.1246   -4.2192 C   0  0  0  0  0  0  0  0  0  0  0  0
    0.5682   14.4062   -3.2690 C   0  0  0  0  0  0  0  0  0  0  0  0
    2.0924   14.4845   -3.4197 C   0  0  0  0  0  0  0  0  0  0  0  0
    2.6023   15.9093   -3.6295 C   0  0  0  0  0  0  0  0  0  0  0  0
    1.5937   16.9167   -3.0980 C   0  0  0  0  0  0  0  0  0  0  0  0
    0.2217   16.7568   -3.7927 C   0  0  0  0  0  0  0  0  0  0  0  0
    0.1867   17.6403   -5.0453 C   0  0  0  0  0  0  0  0  0  0  0  0
   -0.0971   15.3542   -4.1722 N   0  0  0  0  0  0  0  0  0  0  0  0
 19 20  1  0  0  0
 20 21  1  0  0  0
 20 17  1  0  0  0
 20 22  1  0  0  0
  1  2  2  0  0  0
  3  4  2  0  0  0
  5  8  2  0  0  0
  6  9  2  0  0  0
  6  2  1  0  0  0
  7 10  2  0  0  0
  7 11  1  0  0  0
 12 13  2  0  0  0
 14 16  2  0  0  0
 15 11  2  0  0  0
 22 29  1  0  0  0
 23 29  1  0  0  0
 23 24  1  0  0  0
 24 25  1  0  0  0
 25 26  1  0  0  0
 26 27  1  0  0  0
 27 28  1  0  0  0
 27 29  1  0  0  0
 17  1  1  0  0  0
  1 10  1  0  0  0
  2  3  1  0  0  0
  4  8  1  0  0  0
  5  6  1  0  0  0
  7  9  1  0  0  0
 11 12  1  0  0  0
 13 16  1  0  0  0
 14 15  1  0  0  0
 17 18  1  0  0  0
M  END
> <minimizedAffinity>
-8.37274

$$$$
CHEMBL3715766


 25 28  0  0  0  0  0  0  0  0999 V2000
    1.6705   19.1790   -2.9826 C   0  0  0  0  0  0  0  0  0  0  0  0
    0.9596   17.9527   -3.4695 C   0  0  0  0  0  0  0  0  0  0  0  0
    0.7399   15.7399   -3.5445 C   0  0  0  0  0  0  0  0  0  0  0  0
   -0.4321   15.8052   -4.2764 C   0  0  0  0  0  0  0  0  0  0  0  0
   -0.8908   14.4567   -4.4307 C   0  0  0  0  0  0  0  0  0  0  0  0
    0.0659   13.6132   -3.8615 C   0  0  0  0  0  0  0  0  0  0  0  0
   -0.0463   12.2173   -3.8826 C   0  0  0  0  0  0  0  0  0  0  0  0
   -1.1718   11.6628   -4.5093 C   0  0  0  0  0  0  0  0  0  0  0  0
   -2.1643   12.4769   -5.0652 C   0  0  0  0  0  0  0  0  0  0  0  0
   -2.0387   13.8718   -5.0024 C   0  0  0  0  0  0  0  0  0  0  0  0
   -0.8805   17.0895   -4.6462 C   0  0  0  0  0  0  0  0  0  0  0  0
    1.4853   16.7652   -3.1134 N   0  0  0  0  0  0  0  0  0  0  0  0
    1.0370   14.4248   -3.3208 N   0  0  0  0  0  0  0  0  0  0  0  0
   -0.1667   18.1534   -4.1908 N   0  0  0  0  0  0  0  0  0  0  0  0
    1.8538   14.1154   -2.8169 H   0  0  0  0  0  0  0  0  0  0  0  0
   -3.2884   17.0056   -4.8330 C   0  0  0  0  0  0  0  0  0  0  0  0
   -4.4021   17.1849   -5.8584 C   0  0  0  0  0  0  0  0  0  0  0  0
   -4.2193   16.1975   -7.0073 C   0  0  0  0  0  0  0  0  0  0  0  0
   -2.7542   16.0395   -7.4295 C   0  0  0  0  0  0  0  0  0  0  0  0
   -1.8459   17.1434   -6.8916 C   0  0  0  0  0  0  0  0  0  0  0  0
   -1.9945   17.3046   -5.4469 N   0  0  0  0  0  0  0  0  0  0  0  0
   -3.3662   11.9387   -5.7575 C   0  0  0  0  0  0  0  0  0  0  0  0
   -3.4227   10.8108   -6.2250 O   0  0  0  0  0  0  0  0  0  0  0  0
   -5.6733   12.2634   -5.7701 C   0  0  0  0  0  0  0  0  0  0  0  0
   -4.3702   12.8496   -5.7727 O   0  0  0  0  0  0  0  0  0  0  0  0
  1  2  1  0  0  0
  2 14  2  0  0  0
  3 12  2  0  0  0
  4  5  1  0  0  0
  4 11  2  0  0  0
  6 13  1  0  0  0
  6  7  2  0  0  0
  8  9  2  0  0  0
  9 22  1  0  0  0
 10  5  2  0  0  0
 22 25  1  0  0  0
 24 25  1  0  0  0
 11 21  1  0  0  0
 16 21  1  0  0  0
 16 17  1  0  0  0
 17 18  1  0  0  0
 18 19  1  0  0  0
 19 20  1  0  0  0
 20 21  1  0  0  0
 13  3  1  0  0  0
  2 12  1  0  0  0
  3  4  1  0  0  0
  5  6  1  0  0  0
  7  8  1  0  0  0
  9 10  1  0  0  0
 22 23  2  0  0  0
 11 14  1  0  0  0
 13 15  1  0  0  0
M  END
> <minimizedAffinity>
-9.56438

$$$$
CHEMBL3715766


 25 28  0  0  0  0  0  0  0  0999 V2000
   -3.7351   11.2599   -5.6886 C   0  0  0  0  0  0  0  0  0  0  0  0
   -2.9293   12.4510   -5.2667 C   0  0  0  0  0  0  0  0  0  0  0  0
   -1.1220   13.3301   -4.3119 C   0  0  0  0  0  0  0  0  0  0  0  0
   -1.4800   14.6231   -4.6492 C   0  0  0  0  0  0  0  0  0  0  0  0
   -0.4105   15.4689   -4.2093 C   0  0  0  0  0  0  0  0  0  0  0  0
    0.5193   14.6683   -3.5421 C   0  0  0  0  0  0  0  0  0  0  0  0
    1.6716   15.1878   -2.9388 C   0  0  0  0  0  0  0  0  0  0  0  0
    1.8806   16.5724   -3.0159 C   0  0  0  0  0  0  0  0  0  0  0  0
    0.9857   17.4017   -3.7002 C   0  0  0  0  0  0  0  0  0  0  0  0
   -0.1438   16.8485   -4.3197 C   0  0  0  0  0  0  0  0  0  0  0  0
   -2.7080   14.7885   -5.3213 C   0  0  0  0  0  0  0  0  0  0  0  0
   -1.7957   12.2051   -4.5827 N   0  0  0  0  0  0  0  0  0  0  0  0
    0.0635   13.3729   -3.6334 N   0  0  0  0  0  0  0  0  0  0  0  0
   -3.3972   13.6621   -5.6453 N   0  0  0  0  0  0  0  0  0  0  0  0
    0.5278   12.5551   -3.2694 H   0  0  0  0  0  0  0  0  0  0  0  0
   -4.5975   16.2894   -5.1905 C   0  0  0  0  0  0  0  0  0  0  0  0
   -5.0747   17.6387   -5.7153 C   0  0  0  0  0  0  0  0  0  0  0  0
   -5.1189   17.6209   -7.2404 C   0  0  0  0  0  0  0  0  0  0  0  0
   -3.9220   16.8929   -7.8626 C   0  0  0  0  0  0  0  0  0  0  0  0
   -2.7722   16.6690   -6.8822 C   0  0  0  0  0  0  0  0  0  0  0  0
   -3.2331   16.0311   -5.6510 N   0  0  0  0  0  0  0  0  0  0  0  0
    1.1514   18.8772   -3.7943 C   0  0  0  0  0  0  0  0  0  0  0  0
    1.2764   19.6022   -2.8182 O   0  0  0  0  0  0  0  0  0  0  0  0
    0.6567   20.6074   -5.2742 C   0  0  0  0  0  0  0  0  0  0  0  0
    1.1666   19.2857   -5.0869 O   0  0  0  0  0  0  0  0  0  0  0  0
  1  2  1  0  0  0
  2 14  2  0  0  0
  3 12  2  0  0  0
  4  5  1  0  0  0
  4 11  2  0  0  0
  6 13  1  0  0  0
  6  7  2  0  0  0
  8  9  2  0  0  0
  9 22  1  0  0  0
 10  5  2  0  0  0
 22 25  1  0  0  0
 24 25  1  0  0  0
 11 21  1  0  0  0
 16 21  1  0  0  0
 16 17  1  0  0  0
 17 18  1  0  0  0
 18 19  1  0  0  0
 19 20  1  0  0  0
 20 21  1  0  0  0
 13  3  1  0  0  0
  2 12  1  0  0  0
  3  4  1  0  0  0
  5  6  1  0  0  0
  7  8  1  0  0  0
  9 10  1  0  0  0
 22 23  2  0  0  0
 11 14  1  0  0  0
 13 15  1  0  0  0
M  END
> <minimizedAffinity>
-9.31514

$$$$
CHEMBL3715766


 25 28  0  0  0  0  0  0  0  0999 V2000
    0.0807   21.4501   -5.1101 C   0  0  0  0  0  0  0  0  0  0  0  0
    0.0744   19.9597   -4.9527 C   0  0  0  0  0  0  0  0  0  0  0  0
    0.9792   18.0902   -4.1547 C   0  0  0  0  0  0  0  0  0  0  0  0
   -0.0646   17.3025   -4.6062 C   0  0  0  0  0  0  0  0  0  0  0  0
    0.2056   15.9706   -4.1528 C   0  0  0  0  0  0  0  0  0  0  0  0
    1.4488   15.9808   -3.5165 C   0  0  0  0  0  0  0  0  0  0  0  0
    2.0422   14.8244   -2.9946 C   0  0  0  0  0  0  0  0  0  0  0  0
    1.3446   13.6153   -3.1300 C   0  0  0  0  0  0  0  0  0  0  0  0
    0.0846   13.5715   -3.7360 C   0  0  0  0  0  0  0  0  0  0  0  0
   -0.4971   14.7507   -4.2224 C   0  0  0  0  0  0  0  0  0  0  0  0
   -1.0862   17.9527   -5.3279 C   0  0  0  0  0  0  0  0  0  0  0  0
    1.1154   19.4148   -4.2950 N   0  0  0  0  0  0  0  0  0  0  0  0
    1.8859   17.2857   -3.5235 N   0  0  0  0  0  0  0  0  0  0  0  0
   -0.9967   19.3036   -5.4540 N   0  0  0  0  0  0  0  0  0  0  0  0
    2.7440   17.6247   -3.1165 H   0  0  0  0  0  0  0  0  0  0  0  0
   -3.1476   16.7399   -4.9818 C   0  0  0  0  0  0  0  0  0  0  0  0
   -4.1936   15.9415   -5.7513 C   0  0  0  0  0  0  0  0  0  0  0  0
   -3.5381   14.7483   -6.4404 C   0  0  0  0  0  0  0  0  0  0  0  0
   -2.1747   15.0891   -7.0527 C   0  0  0  0  0  0  0  0  0  0  0  0
   -1.9244   16.5907   -7.1770 C   0  0  0  0  0  0  0  0  0  0  0  0
   -2.1530   17.2800   -5.9090 N   0  0  0  0  0  0  0  0  0  0  0  0
   -0.6869   12.3129   -3.9214 C   0  0  0  0  0  0  0  0  0  0  0  0
   -0.2211   11.2028   -3.7102 O   0  0  0  0  0  0  0  0  0  0  0  0
   -2.4327   11.6673   -5.3227 C   0  0  0  0  0  0  0  0  0  0  0  0
   -1.9548   12.5721   -4.3253 O   0  0  0  0  0  0  0  0  0  0  0  0
  1  2  1  0  0  0
  2 14  2  0  0  0
  3 12  2  0  0  0
  4  5  1  0  0  0
  4 11  2  0  0  0
  6 13  1  0  0  0
  6  7  2  0  0  0
  8  9  2  0  0  0
  9 22  1  0  0  0
 10  5  2  0  0  0
 22 25  1  0  0  0
 24 25  1  0  0  0
 11 21  1  0  0  0
 16 21  1  0  0  0
 16 17  1  0  0  0
 17 18  1  0  0  0
 18 19  1  0  0  0
 19 20  1  0  0  0
 20 21  1  0  0  0
 13  3  1  0  0  0
  2 12  1  0  0  0
  3  4  1  0  0  0
  5  6  1  0  0  0
  7  8  1  0  0  0
  9 10  1  0  0  0
 22 23  2  0  0  0
 11 14  1  0  0  0
 13 15  1  0  0  0
M  END
> <minimizedAffinity>
-9.15486

$$$$
CHEMBL3715766


 25 28  0  0  0  0  0  0  0  0999 V2000
   -2.9340   10.7652   -5.8590 C   0  0  0  0  0  0  0  0  0  0  0  0
   -2.2549   12.0170   -5.3923 C   0  0  0  0  0  0  0  0  0  0  0  0
   -0.6037   13.0373   -4.3044 C   0  0  0  0  0  0  0  0  0  0  0  0
   -1.0233   14.2965   -4.6943 C   0  0  0  0  0  0  0  0  0  0  0  0
   -0.0589   15.2233   -4.1811 C   0  0  0  0  0  0  0  0  0  0  0  0
    0.8654   14.5009   -3.4232 C   0  0  0  0  0  0  0  0  0  0  0  0
    1.9216   15.1105   -2.7342 C   0  0  0  0  0  0  0  0  0  0  0  0
    2.0365   16.5057   -2.8187 C   0  0  0  0  0  0  0  0  0  0  0  0
    1.1462   17.2590   -3.5912 C   0  0  0  0  0  0  0  0  0  0  0  0
    0.1165   16.6174   -4.2937 C   0  0  0  0  0  0  0  0  0  0  0  0
   -2.1981   14.3636   -5.4707 C   0  0  0  0  0  0  0  0  0  0  0  0
   -1.1692   11.8628   -4.6106 N   0  0  0  0  0  0  0  0  0  0  0  0
    0.5133   13.1747   -3.5291 N   0  0  0  0  0  0  0  0  0  0  0  0
   -2.7743   13.1860   -5.8311 N   0  0  0  0  0  0  0  0  0  0  0  0
    1.0022   12.3975   -3.1123 H   0  0  0  0  0  0  0  0  0  0  0  0
   -2.1093   16.2668   -6.9573 C   0  0  0  0  0  0  0  0  0  0  0  0
   -2.7947   17.6052   -7.2072 C   0  0  0  0  0  0  0  0  0  0  0  0
   -2.6792   18.4912   -5.9702 C   0  0  0  0  0  0  0  0  0  0  0  0
   -2.8782   17.7168   -4.6623 C   0  0  0  0  0  0  0  0  0  0  0  0
   -3.5049   16.3384   -4.8633 C   0  0  0  0  0  0  0  0  0  0  0  0
   -2.7808   15.5604   -5.8661 N   0  0  0  0  0  0  0  0  0  0  0  0
    1.2131   18.7415   -3.6978 C   0  0  0  0  0  0  0  0  0  0  0  0
    0.6248   19.3797   -4.5584 O   0  0  0  0  0  0  0  0  0  0  0  0
    2.5807   20.5176   -3.0627 C   0  0  0  0  0  0  0  0  0  0  0  0
    1.9822   19.2679   -2.7133 O   0  0  0  0  0  0  0  0  0  0  0  0
  1  2  1  0  0  0
  2 14  2  0  0  0
  3 12  2  0  0  0
  4  5  1  0  0  0
  4 11  2  0  0  0
  6 13  1  0  0  0
  6  7  2  0  0  0
  8  9  2  0  0  0
  9 22  1  0  0  0
 10  5  2  0  0  0
 22 25  1  0  0  0
 24 25  1  0  0  0
 11 21  1  0  0  0
 16 21  1  0  0  0
 16 17  1  0  0  0
 17 18  1  0  0  0
 18 19  1  0  0  0
 19 20  1  0  0  0
 20 21  1  0  0  0
 13  3  1  0  0  0
  2 12  1  0  0  0
  3  4  1  0  0  0
  5  6  1  0  0  0
  7  8  1  0  0  0
  9 10  1  0  0  0
 22 23  2  0  0  0
 11 14  1  0  0  0
 13 15  1  0  0  0
M  END
> <minimizedAffinity>
-8.65814

$$$$
CHEMBL3715766


 25 28  0  0  0  0  0  0  0  0999 V2000
   -0.3485   11.5923   -3.7736 C   0  0  0  0  0  0  0  0  0  0  0  0
   -0.2702   13.0846   -3.8882 C   0  0  0  0  0  0  0  0  0  0  0  0
    0.7329   15.0152   -3.4220 C   0  0  0  0  0  0  0  0  0  0  0  0
   -0.1186   15.7410   -4.2356 C   0  0  0  0  0  0  0  0  0  0  0  0
    0.3458   17.0959   -4.2043 C   0  0  0  0  0  0  0  0  0  0  0  0
    1.4109   17.1608   -3.3031 C   0  0  0  0  0  0  0  0  0  0  0  0
    2.0703   18.3573   -2.9945 C   0  0  0  0  0  0  0  0  0  0  0  0
    1.6252   19.5286   -3.6245 C   0  0  0  0  0  0  0  0  0  0  0  0
    0.5802   19.4974   -4.5538 C   0  0  0  0  0  0  0  0  0  0  0  0
   -0.0410   18.2796   -4.8646 C   0  0  0  0  0  0  0  0  0  0  0  0
   -1.1488   15.0246   -4.8782 C   0  0  0  0  0  0  0  0  0  0  0  0
    0.7130   13.6950   -3.1996 N   0  0  0  0  0  0  0  0  0  0  0  0
    1.6287   15.8778   -2.8553 N   0  0  0  0  0  0  0  0  0  0  0  0
   -1.1724   13.6764   -4.7034 N   0  0  0  0  0  0  0  0  0  0  0  0
    2.3485   15.5903   -2.2103 H   0  0  0  0  0  0  0  0  0  0  0  0
   -3.2628   16.1942   -4.9342 C   0  0  0  0  0  0  0  0  0  0  0  0
   -4.2945   16.7257   -5.9225 C   0  0  0  0  0  0  0  0  0  0  0  0
   -4.8360   15.5840   -6.7780 C   0  0  0  0  0  0  0  0  0  0  0  0
   -3.7482   14.5923   -7.2055 C   0  0  0  0  0  0  0  0  0  0  0  0
   -2.3306   15.1285   -7.0158 C   0  0  0  0  0  0  0  0  0  0  0  0
   -2.1237   15.6310   -5.6593 N   0  0  0  0  0  0  0  0  0  0  0  0
    0.0584   20.7132   -5.2342 C   0  0  0  0  0  0  0  0  0  0  0  0
    0.6393   21.7886   -5.2256 O   0  0  0  0  0  0  0  0  0  0  0  0
   -1.9334   21.6103   -6.0442 C   0  0  0  0  0  0  0  0  0  0  0  0
   -1.1120   20.4545   -5.8675 O   0  0  0  0  0  0  0  0  0  0  0  0
  1  2  1  0  0  0
  2 14  2  0  0  0
  3 12  2  0  0  0
  4  5  1  0  0  0
  4 11  2  0  0  0
  6 13  1  0  0  0
  6  7  2  0  0  0
  8  9  2  0  0  0
  9 22  1  0  0  0
 10  5  2  0  0  0
 22 25  1  0  0  0
 24 25  1  0  0  0
 11 21  1  0  0  0
 16 21  1  0  0  0
 16 17  1  0  0  0
 17 18  1  0  0  0
 18 19  1  0  0  0
 19 20  1  0  0  0
 20 21  1  0  0  0
 13  3  1  0  0  0
  2 12  1  0  0  0
  3  4  1  0  0  0
  5  6  1  0  0  0
  7  8  1  0  0  0
  9 10  1  0  0  0
 22 23  2  0  0  0
 11 14  1  0  0  0
 13 15  1  0  0  0
M  END
> <minimizedAffinity>
-8.60791

$$$$
CHEMBL3715766


 25 28  0  0  0  0  0  0  0  0999 V2000
    2.2583   13.4184   -2.9229 C   0  0  0  0  0  0  0  0  0  0  0  0
    0.9727   13.8233   -3.5783 C   0  0  0  0  0  0  0  0  0  0  0  0
   -1.0088   13.3038   -4.4469 C   0  0  0  0  0  0  0  0  0  0  0  0
   -1.3578   14.6289   -4.6364 C   0  0  0  0  0  0  0  0  0  0  0  0
   -2.6970   14.6278   -5.1454 C   0  0  0  0  0  0  0  0  0  0  0  0
   -3.0821   13.2979   -5.3293 C   0  0  0  0  0  0  0  0  0  0  0  0
   -4.3250   12.9362   -5.8641 C   0  0  0  0  0  0  0  0  0  0  0  0
   -5.2038   13.9670   -6.2272 C   0  0  0  0  0  0  0  0  0  0  0  0
   -4.8637   15.3097   -6.0313 C   0  0  0  0  0  0  0  0  0  0  0  0
   -3.6240   15.6401   -5.4661 C   0  0  0  0  0  0  0  0  0  0  0  0
   -0.3956   15.5970   -4.2838 C   0  0  0  0  0  0  0  0  0  0  0  0
    0.1329   12.8314   -3.9308 N   0  0  0  0  0  0  0  0  0  0  0  0
   -2.0388   12.5189   -4.8835 N   0  0  0  0  0  0  0  0  0  0  0  0
    0.7590   15.1510   -3.7208 N   0  0  0  0  0  0  0  0  0  0  0  0
   -2.0201   11.5109   -4.8617 H   0  0  0  0  0  0  0  0  0  0  0  0
   -0.7526   17.3722   -5.8841 C   0  0  0  0  0  0  0  0  0  0  0  0
   -0.8286   18.8925   -5.9667 C   0  0  0  0  0  0  0  0  0  0  0  0
    0.4822   19.5086   -5.4865 C   0  0  0  0  0  0  0  0  0  0  0  0
    1.0599   18.7971   -4.2578 C   0  0  0  0  0  0  0  0  0  0  0  0
    0.0541   17.8870   -3.5556 C   0  0  0  0  0  0  0  0  0  0  0  0
   -0.5747   16.9581   -4.4922 N   0  0  0  0  0  0  0  0  0  0  0  0
   -5.7513   16.4397   -6.4170 C   0  0  0  0  0  0  0  0  0  0  0  0
   -6.5766   16.3683   -7.3158 O   0  0  0  0  0  0  0  0  0  0  0  0
   -5.2638   18.7174   -6.3681 C   0  0  0  0  0  0  0  0  0  0  0  0
   -5.5327   17.5228   -5.6316 O   0  0  0  0  0  0  0  0  0  0  0  0
  1  2  1  0  0  0
  2 14  2  0  0  0
  3 12  2  0  0  0
  4  5  1  0  0  0
  4 11  2  0  0  0
  6 13  1  0  0  0
  6  7  2  0  0  0
  8  9  2  0  0  0
  9 22  1  0  0  0
 10  5  2  0  0  0
 22 25  1  0  0  0
 24 25  1  0  0  0
 11 21  1  0  0  0
 16 21  1  0  0  0
 16 17  1  0  0  0
 17 18  1  0  0  0
 18 19  1  0  0  0
 19 20  1  0  0  0
 20 21  1  0  0  0
 13  3  1  0  0  0
  2 12  1  0  0  0
  3  4  1  0  0  0
  5  6  1  0  0  0
  7  8  1  0  0  0
  9 10  1  0  0  0
 22 23  2  0  0  0
 11 14  1  0  0  0
 13 15  1  0  0  0
M  END
> <minimizedAffinity>
-8.51017

$$$$
CHEMBL3715766


 25 28  0  0  0  0  0  0  0  0999 V2000
   -4.8780   19.0848   -8.3480 C   0  0  0  0  0  0  0  0  0  0  0  0
   -4.2693   17.9401   -7.5961 C   0  0  0  0  0  0  0  0  0  0  0  0
   -4.3105   15.8182   -6.9278 C   0  0  0  0  0  0  0  0  0  0  0  0
   -3.0637   15.9019   -6.3343 C   0  0  0  0  0  0  0  0  0  0  0  0
   -2.7562   14.5899   -5.8479 C   0  0  0  0  0  0  0  0  0  0  0  0
   -3.8658   13.7758   -6.0862 C   0  0  0  0  0  0  0  0  0  0  0  0
   -3.9208   12.4343   -5.6877 C   0  0  0  0  0  0  0  0  0  0  0  0
   -2.8066   11.9061   -5.0197 C   0  0  0  0  0  0  0  0  0  0  0  0
   -1.6666   12.6833   -4.7887 C   0  0  0  0  0  0  0  0  0  0  0  0
   -1.6296   14.0148   -5.2259 C   0  0  0  0  0  0  0  0  0  0  0  0
   -2.4249   17.1580   -6.3703 C   0  0  0  0  0  0  0  0  0  0  0  0
   -4.9711   16.7912   -7.5679 N   0  0  0  0  0  0  0  0  0  0  0  0
   -4.7872   14.5492   -6.7548 N   0  0  0  0  0  0  0  0  0  0  0  0
   -3.0526   18.1566   -7.0469 N   0  0  0  0  0  0  0  0  0  0  0  0
   -5.6872   14.2409   -7.0894 H   0  0  0  0  0  0  0  0  0  0  0  0
   -1.2315   17.4191   -4.2852 C   0  0  0  0  0  0  0  0  0  0  0  0
    0.1396   17.8142   -3.7488 C   0  0  0  0  0  0  0  0  0  0  0  0
    0.4865   19.2321   -4.1933 C   0  0  0  0  0  0  0  0  0  0  0  0
    0.0755   19.5196   -5.6418 C   0  0  0  0  0  0  0  0  0  0  0  0
   -0.2433   18.2588   -6.4430 C   0  0  0  0  0  0  0  0  0  0  0  0
   -1.2096   17.4111   -5.7481 N   0  0  0  0  0  0  0  0  0  0  0  0
   -0.4675   12.1767   -4.0683 C   0  0  0  0  0  0  0  0  0  0  0  0
   -0.1803   10.9910   -3.9940 O   0  0  0  0  0  0  0  0  0  0  0  0
    1.6474   12.9095   -3.4213 C   0  0  0  0  0  0  0  0  0  0  0  0
    0.2528   13.1969   -3.5407 O   0  0  0  0  0  0  0  0  0  0  0  0
  1  2  1  0  0  0
  2 14  2  0  0  0
  3 12  2  0  0  0
  4  5  1  0  0  0
  4 11  2  0  0  0
  6 13  1  0  0  0
  6  7  2  0  0  0
  8  9  2  0  0  0
  9 22  1  0  0  0
 10  5  2  0  0  0
 22 25  1  0  0  0
 24 25  1  0  0  0
 11 21  1  0  0  0
 16 21  1  0  0  0
 16 17  1  0  0  0
 17 18  1  0  0  0
 18 19  1  0  0  0
 19 20  1  0  0  0
 20 21  1  0  0  0
 13  3  1  0  0  0
  2 12  1  0  0  0
  3  4  1  0  0  0
  5  6  1  0  0  0
  7  8  1  0  0  0
  9 10  1  0  0  0
 22 23  2  0  0  0
 11 14  1  0  0  0
 13 15  1  0  0  0
M  END
> <minimizedAffinity>
-8.44055

$$$$
CHEMBL3715766


 25 28  0  0  0  0  0  0  0  0999 V2000
    1.6665   13.4131   -2.9401 C   0  0  0  0  0  0  0  0  0  0  0  0
    1.0873   14.7009   -3.4424 C   0  0  0  0  0  0  0  0  0  0  0  0
    1.1683   16.9152   -3.6444 C   0  0  0  0  0  0  0  0  0  0  0  0
    0.0630   16.9556   -4.4754 C   0  0  0  0  0  0  0  0  0  0  0  0
   -0.1045   18.3247   -4.8627 C   0  0  0  0  0  0  0  0  0  0  0  0
    0.8532   19.0804   -4.1829 C   0  0  0  0  0  0  0  0  0  0  0  0
    0.9379   20.4739   -4.2951 C   0  0  0  0  0  0  0  0  0  0  0  0
    0.0112   21.1189   -5.1270 C   0  0  0  0  0  0  0  0  0  0  0  0
   -0.9439   20.3920   -5.8455 C   0  0  0  0  0  0  0  0  0  0  0  0
   -0.9851   18.9950   -5.7357 C   0  0  0  0  0  0  0  0  0  0  0  0
   -0.5735   15.7276   -4.7476 C   0  0  0  0  0  0  0  0  0  0  0  0
    1.7288   15.8319   -3.0921 N   0  0  0  0  0  0  0  0  0  0  0  0
    1.6182   18.1926   -3.4614 N   0  0  0  0  0  0  0  0  0  0  0  0
   -0.0056   14.6043   -4.2330 N   0  0  0  0  0  0  0  0  0  0  0  0
    2.4101   18.4276   -2.8829 H   0  0  0  0  0  0  0  0  0  0  0  0
   -2.9746   15.9938   -4.8103 C   0  0  0  0  0  0  0  0  0  0  0  0
   -4.1706   15.7287   -5.7175 C   0  0  0  0  0  0  0  0  0  0  0  0
   -4.2681   14.2388   -6.0326 C   0  0  0  0  0  0  0  0  0  0  0  0
   -2.9019   13.5944   -6.2930 C   0  0  0  0  0  0  0  0  0  0  0  0
   -1.7911   14.6110   -6.5496 C   0  0  0  0  0  0  0  0  0  0  0  0
   -1.7372   15.6243   -5.4981 N   0  0  0  0  0  0  0  0  0  0  0  0
   -1.9605   21.0294   -6.7251 C   0  0  0  0  0  0  0  0  0  0  0  0
   -2.1181   22.2391   -6.8016 O   0  0  0  0  0  0  0  0  0  0  0  0
   -3.7698   20.6331   -8.1384 C   0  0  0  0  0  0  0  0  0  0  0  0
   -2.6516   20.0984   -7.4275 O   0  0  0  0  0  0  0  0  0  0  0  0
  1  2  1  0  0  0
  2 14  2  0  0  0
  3 12  2  0  0  0
  4  5  1  0  0  0
  4 11  2  0  0  0
  6 13  1  0  0  0
  6  7  2  0  0  0
  8  9  2  0  0  0
  9 22  1  0  0  0
 10  5  2  0  0  0
 22 25  1  0  0  0
 24 25  1  0  0  0
 11 21  1  0  0  0
 16 21  1  0  0  0
 16 17  1  0  0  0
 17 18  1  0  0  0
 18 19  1  0  0  0
 19 20  1  0  0  0
 20 21  1  0  0  0
 13  3  1  0  0  0
  2 12  1  0  0  0
  3  4  1  0  0  0
  5  6  1  0  0  0
  7  8  1  0  0  0
  9 10  1  0  0  0
 22 23  2  0  0  0
 11 14  1  0  0  0
 13 15  1  0  0  0
M  END
> <minimizedAffinity>
-8.10551

$$$$
CHEMBL3715766


 25 28  0  0  0  0  0  0  0  0999 V2000
    0.8164   20.8028   -5.4772 C   0  0  0  0  0  0  0  0  0  0  0  0
    0.1445   19.4631   -5.4741 C   0  0  0  0  0  0  0  0  0  0  0  0
   -1.3938   18.0635   -6.2649 C   0  0  0  0  0  0  0  0  0  0  0  0
   -0.9319   17.0054   -5.5026 C   0  0  0  0  0  0  0  0  0  0  0  0
   -1.7216   15.8669   -5.8669 C   0  0  0  0  0  0  0  0  0  0  0  0
   -2.6933   16.2946   -6.7744 C   0  0  0  0  0  0  0  0  0  0  0  0
   -3.6696   15.4381   -7.2986 C   0  0  0  0  0  0  0  0  0  0  0  0
   -3.6561   14.0997   -6.8797 C   0  0  0  0  0  0  0  0  0  0  0  0
   -2.6809   13.6291   -5.9941 C   0  0  0  0  0  0  0  0  0  0  0  0
   -1.6983   14.5037   -5.5092 C   0  0  0  0  0  0  0  0  0  0  0  0
    0.1451   17.2705   -4.6326 C   0  0  0  0  0  0  0  0  0  0  0  0
   -0.9100   19.3116   -6.2977 N   0  0  0  0  0  0  0  0  0  0  0  0
   -2.4584   17.6310   -7.0045 N   0  0  0  0  0  0  0  0  0  0  0  0
    0.6840   18.5183   -4.6710 N   0  0  0  0  0  0  0  0  0  0  0  0
   -2.9778   18.2233   -7.6340 H   0  0  0  0  0  0  0  0  0  0  0  0
    2.0027   15.8349   -4.0593 C   0  0  0  0  0  0  0  0  0  0  0  0
    2.3889   14.7369   -3.0750 C   0  0  0  0  0  0  0  0  0  0  0  0
    1.4388   13.5511   -3.2149 C   0  0  0  0  0  0  0  0  0  0  0  0
   -0.0202   13.9770   -3.4137 C   0  0  0  0  0  0  0  0  0  0  0  0
   -0.2768   15.4420   -3.0657 C   0  0  0  0  0  0  0  0  0  0  0  0
    0.6603   16.3289   -3.7516 N   0  0  0  0  0  0  0  0  0  0  0  0
   -2.6346   12.2250   -5.5044 C   0  0  0  0  0  0  0  0  0  0  0  0
   -1.6221   11.5405   -5.5235 O   0  0  0  0  0  0  0  0  0  0  0  0
   -4.4298   10.7629   -5.7648 C   0  0  0  0  0  0  0  0  0  0  0  0
   -3.8413   11.8346   -5.0253 O   0  0  0  0  0  0  0  0  0  0  0  0
  1  2  1  0  0  0
  2 14  2  0  0  0
  3 12  2  0  0  0
  4  5  1  0  0  0
  4 11  2  0  0  0
  6 13  1  0  0  0
  6  7  2  0  0  0
  8  9  2  0  0  0
  9 22  1  0  0  0
 10  5  2  0  0  0
 22 25  1  0  0  0
 24 25  1  0  0  0
 11 21  1  0  0  0
 16 21  1  0  0  0
 16 17  1  0  0  0
 17 18  1  0  0  0
 18 19  1  0  0  0
 19 20  1  0  0  0
 20 21  1  0  0  0
 13  3  1  0  0  0
  2 12  1  0  0  0
  3  4  1  0  0  0
  5  6  1  0  0  0
  7  8  1  0  0  0
  9 10  1  0  0  0
 22 23  2  0  0  0
 11 14  1  0  0  0
 13 15  1  0  0  0
M  END
> <minimizedAffinity>
-7.87606

$$$$
CHEMBL3669559


 33 38  0  0  0  0  0  0  0  0999 V2000
   -1.7791   15.3615   -5.7754 O   0  0  0  0  0  0  0  0  0  0  0  0
   -1.7623   16.5841   -5.6444 C   0  0  0  0  0  0  0  0  0  0  0  0
   -0.3721   18.4159   -4.7473 C   0  0  0  0  0  0  0  0  0  0  0  0
   -1.0803   19.4241   -5.6328 C   0  0  0  0  0  0  0  0  0  0  0  0
   -1.6006   18.7492   -6.8992 C   0  0  0  0  0  0  0  0  0  0  0  0
   -2.5244   17.5508   -6.5835 C   0  0  0  0  0  0  0  0  0  0  0  0
   -3.8164   18.0341   -5.8575 C   0  0  0  0  0  0  0  0  0  0  0  0
   -5.1188   17.5380   -6.4901 C   0  0  0  0  0  0  0  0  0  0  0  0
   -3.9352   15.7235   -7.7113 C   0  0  0  0  0  0  0  0  0  0  0  0
   -2.8994   16.8413   -7.9051 C   0  0  0  0  0  0  0  0  0  0  0  0
   -1.1295   17.1927   -4.5687 N   0  0  0  0  0  0  0  0  0  0  0  0
   -5.0040   16.1257   -6.8131 N   0  0  0  0  0  0  0  0  0  0  0  0
   -5.9508   15.2377   -6.3213 C   0  0  0  0  0  0  0  0  0  0  0  0
   -8.1682   14.9217   -5.5915 C   0  0  0  0  0  0  0  0  0  0  0  0
   -6.8394   13.1677   -5.4900 C   0  0  0  0  0  0  0  0  0  0  0  0
   -5.1471   11.7060   -5.5441 C   0  0  0  0  0  0  0  0  0  0  0  0
   -4.6829   12.9076   -6.0369 C   0  0  0  0  0  0  0  0  0  0  0  0
   -5.7497   13.8631   -6.0076 C   0  0  0  0  0  0  0  0  0  0  0  0
   -7.2131   15.7184   -6.1001 N   0  0  0  0  0  0  0  0  0  0  0  0
   -8.0740   13.6304   -5.2565 N   0  0  0  0  0  0  0  0  0  0  0  0
   -6.4616   11.8819   -5.2192 N   0  0  0  0  0  0  0  0  0  0  0  0
   -7.0810   11.1903   -4.8239 H   0  0  0  0  0  0  0  0  0  0  0  0
   -0.9746   16.4420   -3.3282 C   0  0  0  0  0  0  0  0  0  0  0  0
    0.3685   15.7779   -3.3955 C   0  0  0  0  0  0  0  0  0  0  0  0
    1.6019   16.3795   -3.2135 C   0  0  0  0  0  0  0  0  0  0  0  0
    1.9897   14.1707   -3.4243 C   0  0  0  0  0  0  0  0  0  0  0  0
    2.5763   12.8998   -3.4694 C   0  0  0  0  0  0  0  0  0  0  0  0
    1.7346   11.8041   -3.6787 C   0  0  0  0  0  0  0  0  0  0  0  0
    0.3623   11.9754   -3.8350 C   0  0  0  0  0  0  0  0  0  0  0  0
   -0.2092   13.2500   -3.7689 C   0  0  0  0  0  0  0  0  0  0  0  0
    0.6165   14.3743   -3.5623 C   0  0  0  0  0  0  0  0  0  0  0  0
    2.5619   15.4036   -3.2215 N   0  0  0  0  0  0  0  0  0  0  0  0
    3.5487   15.5533   -3.0668 H   0  0  0  0  0  0  0  0  0  0  0  0
  2 11  1  0  0  0
 23 11  1  0  0  0
 23 24  1  0  0  0
 25 32  1  0  0  0
 27 28  2  0  0  0
 29 30  2  0  0  0
 31 24  1  0  0  0
 31 26  2  0  0  0
  3 11  1  0  0  0
  3  4  1  0  0  0
  4  5  1  0  0  0
  5  6  1  0  0  0
  6  7  1  0  0  0
  6  2  1  0  0  0
  7  8  1  0  0  0
  8 12  1  0  0  0
  9 12  1  0  0  0
  9 10  1  0  0  0
 10  6  1  0  0  0
 14 19  2  0  0  0
 15 20  2  0  0  0
 15 21  1  0  0  0
 17 18  1  0  0  0
 18 13  2  0  0  0
 32 26  1  0  0  0
 12 13  1  0  0  0
 21 16  1  0  0  0
  2  1  2  0  0  0
 24 25  2  0  0  0
 26 27  1  0  0  0
 28 29  1  0  0  0
 30 31  1  0  0  0
 13 19  1  0  0  0
 14 20  1  0  0  0
 16 17  2  0  0  0
 18 15  1  0  0  0
 32 33  1  0  0  0
 21 22  1  0  0  0
M  END
> <minimizedAffinity>
-10.78594

$$$$
CHEMBL3669559


 33 38  0  0  0  0  0  0  0  0999 V2000
   -1.0821   17.3034   -7.2581 O   0  0  0  0  0  0  0  0  0  0  0  0
   -1.7504   18.1438   -6.6587 C   0  0  0  0  0  0  0  0  0  0  0  0
   -1.6098   20.4276   -5.7328 C   0  0  0  0  0  0  0  0  0  0  0  0
   -3.1207   20.5630   -5.7641 C   0  0  0  0  0  0  0  0  0  0  0  0
   -3.7115   19.6922   -6.8698 C   0  0  0  0  0  0  0  0  0  0  0  0
   -3.2957   18.2101   -6.7293 C   0  0  0  0  0  0  0  0  0  0  0  0
   -3.8800   17.6011   -5.4188 C   0  0  0  0  0  0  0  0  0  0  0  0
   -4.6436   16.2897   -5.6181 C   0  0  0  0  0  0  0  0  0  0  0  0
   -3.5820   15.9083   -7.8344 C   0  0  0  0  0  0  0  0  0  0  0  0
   -3.8178   17.4217   -7.9526 C   0  0  0  0  0  0  0  0  0  0  0  0
   -1.1666   19.0481   -5.7816 N   0  0  0  0  0  0  0  0  0  0  0  0
   -3.8968   15.4137   -6.5051 N   0  0  0  0  0  0  0  0  0  0  0  0
   -3.5837   14.1284   -6.0844 C   0  0  0  0  0  0  0  0  0  0  0  0
   -1.8911   12.6157   -5.4547 C   0  0  0  0  0  0  0  0  0  0  0  0
   -3.9480   11.8285   -5.4983 C   0  0  0  0  0  0  0  0  0  0  0  0
   -6.1475   11.4807   -5.7106 C   0  0  0  0  0  0  0  0  0  0  0  0
   -5.8974   12.8018   -6.0177 C   0  0  0  0  0  0  0  0  0  0  0  0
   -4.4919   13.0480   -5.8933 C   0  0  0  0  0  0  0  0  0  0  0  0
   -2.2679   13.8496   -5.8307 N   0  0  0  0  0  0  0  0  0  0  0  0
   -2.6622   11.5404   -5.2607 N   0  0  0  0  0  0  0  0  0  0  0  0
   -4.9506   10.9047   -5.3942 N   0  0  0  0  0  0  0  0  0  0  0  0
   -4.7968    9.9421   -5.1336 H   0  0  0  0  0  0  0  0  0  0  0  0
    0.0882   18.6871   -5.1323 C   0  0  0  0  0  0  0  0  0  0  0  0
   -0.1760   17.4276   -4.3622 C   0  0  0  0  0  0  0  0  0  0  0  0
   -1.3988   16.9876   -3.8851 C   0  0  0  0  0  0  0  0  0  0  0  0
    0.0839   15.3454   -3.4627 C   0  0  0  0  0  0  0  0  0  0  0  0
    0.7003   14.1428   -3.0951 C   0  0  0  0  0  0  0  0  0  0  0  0
    2.0712   14.0168   -3.3355 C   0  0  0  0  0  0  0  0  0  0  0  0
    2.7932   15.0525   -3.9211 C   0  0  0  0  0  0  0  0  0  0  0  0
    2.1581   16.2398   -4.2988 C   0  0  0  0  0  0  0  0  0  0  0  0
    0.7763   16.3961   -4.0649 C   0  0  0  0  0  0  0  0  0  0  0  0
   -1.2300   15.7347   -3.3597 N   0  0  0  0  0  0  0  0  0  0  0  0
   -1.9657   15.1565   -2.9798 H   0  0  0  0  0  0  0  0  0  0  0  0
  2 11  1  0  0  0
 23 11  1  0  0  0
 23 24  1  0  0  0
 25 32  1  0  0  0
 27 28  2  0  0  0
 29 30  2  0  0  0
 31 24  1  0  0  0
 31 26  2  0  0  0
  3 11  1  0  0  0
  3  4  1  0  0  0
  4  5  1  0  0  0
  5  6  1  0  0  0
  6  7  1  0  0  0
  6  2  1  0  0  0
  7  8  1  0  0  0
  8 12  1  0  0  0
  9 12  1  0  0  0
  9 10  1  0  0  0
 10  6  1  0  0  0
 14 19  2  0  0  0
 15 20  2  0  0  0
 15 21  1  0  0  0
 17 18  1  0  0  0
 18 13  2  0  0  0
 32 26  1  0  0  0
 12 13  1  0  0  0
 21 16  1  0  0  0
  2  1  2  0  0  0
 24 25  2  0  0  0
 26 27  1  0  0  0
 28 29  1  0  0  0
 30 31  1  0  0  0
 13 19  1  0  0  0
 14 20  1  0  0  0
 16 17  2  0  0  0
 18 15  1  0  0  0
 32 33  1  0  0  0
 21 22  1  0  0  0
M  END
> <minimizedAffinity>
-10.60519

$$$$
CHEMBL3669559


 33 38  0  0  0  0  0  0  0  0999 V2000
   -2.7479   16.5396   -7.7984 O   0  0  0  0  0  0  0  0  0  0  0  0
   -3.8290   16.7183   -7.2403 C   0  0  0  0  0  0  0  0  0  0  0  0
   -6.1406   17.4581   -7.6898 C   0  0  0  0  0  0  0  0  0  0  0  0
   -6.6405   16.7417   -6.4492 C   0  0  0  0  0  0  0  0  0  0  0  0
   -5.7464   15.5475   -6.1261 C   0  0  0  0  0  0  0  0  0  0  0  0
   -4.2643   15.9559   -5.9649 C   0  0  0  0  0  0  0  0  0  0  0  0
   -4.0886   16.8998   -4.7369 C   0  0  0  0  0  0  0  0  0  0  0  0
   -2.9969   16.4639   -3.7569 C   0  0  0  0  0  0  0  0  0  0  0  0
   -1.9371   14.9921   -5.4584 C   0  0  0  0  0  0  0  0  0  0  0  0
   -3.4082   14.6825   -5.7745 C   0  0  0  0  0  0  0  0  0  0  0  0
   -4.7120   17.7035   -7.6616 N   0  0  0  0  0  0  0  0  0  0  0  0
   -1.8062   16.0666   -4.4893 N   0  0  0  0  0  0  0  0  0  0  0  0
   -0.5912   16.6655   -4.1861 C   0  0  0  0  0  0  0  0  0  0  0  0
    0.6820   18.6476   -4.1695 C   0  0  0  0  0  0  0  0  0  0  0  0
    1.6967   16.8203   -3.4739 C   0  0  0  0  0  0  0  0  0  0  0  0
    2.3015   14.7467   -2.8927 C   0  0  0  0  0  0  0  0  0  0  0  0
    0.9810   14.7060   -3.2885 C   0  0  0  0  0  0  0  0  0  0  0  0
    0.5714   16.0242   -3.6708 C   0  0  0  0  0  0  0  0  0  0  0  0
   -0.4776   18.0114   -4.4077 N   0  0  0  0  0  0  0  0  0  0  0  0
    1.8239   18.1339   -3.6999 N   0  0  0  0  0  0  0  0  0  0  0  0
    2.7197   16.0413   -3.0092 N   0  0  0  0  0  0  0  0  0  0  0  0
    3.6420   16.3959   -2.8046 H   0  0  0  0  0  0  0  0  0  0  0  0
   -4.1830   18.8698   -8.3589 C   0  0  0  0  0  0  0  0  0  0  0  0
   -3.5472   19.7395   -7.3155 C   0  0  0  0  0  0  0  0  0  0  0  0
   -2.1924   19.8935   -7.0765 C   0  0  0  0  0  0  0  0  0  0  0  0
   -3.2519   21.3594   -5.7341 C   0  0  0  0  0  0  0  0  0  0  0  0
   -3.5642   22.3809   -4.8284 C   0  0  0  0  0  0  0  0  0  0  0  0
   -4.9148   22.6752   -4.6231 C   0  0  0  0  0  0  0  0  0  0  0  0
   -5.9104   21.9754   -5.2985 C   0  0  0  0  0  0  0  0  0  0  0  0
   -5.5801   20.9705   -6.2133 C   0  0  0  0  0  0  0  0  0  0  0  0
   -4.2254   20.6499   -6.4376 C   0  0  0  0  0  0  0  0  0  0  0  0
   -2.0303   20.8748   -6.1358 N   0  0  0  0  0  0  0  0  0  0  0  0
   -1.1431   21.2245   -5.8030 H   0  0  0  0  0  0  0  0  0  0  0  0
  2 11  1  0  0  0
 23 11  1  0  0  0
 23 24  1  0  0  0
 25 32  1  0  0  0
 27 28  2  0  0  0
 29 30  2  0  0  0
 31 24  1  0  0  0
 31 26  2  0  0  0
  3 11  1  0  0  0
  3  4  1  0  0  0
  4  5  1  0  0  0
  5  6  1  0  0  0
  6  7  1  0  0  0
  6  2  1  0  0  0
  7  8  1  0  0  0
  8 12  1  0  0  0
  9 12  1  0  0  0
  9 10  1  0  0  0
 10  6  1  0  0  0
 14 19  2  0  0  0
 15 20  2  0  0  0
 15 21  1  0  0  0
 17 18  1  0  0  0
 18 13  2  0  0  0
 32 26  1  0  0  0
 12 13  1  0  0  0
 21 16  1  0  0  0
  2  1  2  0  0  0
 24 25  2  0  0  0
 26 27  1  0  0  0
 28 29  1  0  0  0
 30 31  1  0  0  0
 13 19  1  0  0  0
 14 20  1  0  0  0
 16 17  2  0  0  0
 18 15  1  0  0  0
 32 33  1  0  0  0
 21 22  1  0  0  0
M  END
> <minimizedAffinity>
-10.25851

$$$$
CHEMBL3669559


 33 38  0  0  0  0  0  0  0  0999 V2000
   -4.7614   16.9954   -4.9507 O   0  0  0  0  0  0  0  0  0  0  0  0
   -3.8771   16.7089   -5.7557 C   0  0  0  0  0  0  0  0  0  0  0  0
   -2.2554   14.9286   -6.2974 C   0  0  0  0  0  0  0  0  0  0  0  0
   -2.1473   15.4240   -7.7274 C   0  0  0  0  0  0  0  0  0  0  0  0
   -3.4411   16.1135   -8.1524 C   0  0  0  0  0  0  0  0  0  0  0  0
   -3.8269   17.2674   -7.1989 C   0  0  0  0  0  0  0  0  0  0  0  0
   -2.7601   18.4025   -7.2561 C   0  0  0  0  0  0  0  0  0  0  0  0
   -3.3365   19.7986   -7.5030 C   0  0  0  0  0  0  0  0  0  0  0  0
   -5.6143   19.0732   -6.8171 C   0  0  0  0  0  0  0  0  0  0  0  0
   -5.2082   17.8243   -7.6142 C   0  0  0  0  0  0  0  0  0  0  0  0
   -2.7869   15.9293   -5.3930 N   0  0  0  0  0  0  0  0  0  0  0  0
   -4.5082   20.0034   -6.6680 N   0  0  0  0  0  0  0  0  0  0  0  0
   -4.5586   21.1072   -5.8277 C   0  0  0  0  0  0  0  0  0  0  0  0
   -5.9135   22.5886   -4.5952 C   0  0  0  0  0  0  0  0  0  0  0  0
   -3.7459   22.9792   -4.5625 C   0  0  0  0  0  0  0  0  0  0  0  0
   -1.5268   22.9947   -4.8436 C   0  0  0  0  0  0  0  0  0  0  0  0
   -2.0329   21.9164   -5.5389 C   0  0  0  0  0  0  0  0  0  0  0  0
   -3.4559   21.8881   -5.3777 C   0  0  0  0  0  0  0  0  0  0  0  0
   -5.7897   21.5065   -5.3824 N   0  0  0  0  0  0  0  0  0  0  0  0
   -4.9462   23.3875   -4.1320 N   0  0  0  0  0  0  0  0  0  0  0  0
   -2.5827   23.6280   -4.2535 N   0  0  0  0  0  0  0  0  0  0  0  0
   -2.5426   24.4591   -3.6826 H   0  0  0  0  0  0  0  0  0  0  0  0
   -2.3725   15.9077   -3.9951 C   0  0  0  0  0  0  0  0  0  0  0  0
   -0.9058   16.2205   -3.9793 C   0  0  0  0  0  0  0  0  0  0  0  0
   -0.3225   17.4703   -4.0979 C   0  0  0  0  0  0  0  0  0  0  0  0
    1.3470   16.0206   -3.6678 C   0  0  0  0  0  0  0  0  0  0  0  0
    2.5844   15.4309   -3.3805 C   0  0  0  0  0  0  0  0  0  0  0  0
    2.6119   14.0490   -3.1742 C   0  0  0  0  0  0  0  0  0  0  0  0
    1.4475   13.2906   -3.2514 C   0  0  0  0  0  0  0  0  0  0  0  0
    0.2173   13.8984   -3.5212 C   0  0  0  0  0  0  0  0  0  0  0  0
    0.1602   15.2907   -3.7373 C   0  0  0  0  0  0  0  0  0  0  0  0
    1.0252   17.3368   -3.8976 N   0  0  0  0  0  0  0  0  0  0  0  0
    1.6919   18.0953   -3.8840 H   0  0  0  0  0  0  0  0  0  0  0  0
  2 11  1  0  0  0
 23 11  1  0  0  0
 23 24  1  0  0  0
 25 32  1  0  0  0
 27 28  2  0  0  0
 29 30  2  0  0  0
 31 24  1  0  0  0
 31 26  2  0  0  0
  3 11  1  0  0  0
  3  4  1  0  0  0
  4  5  1  0  0  0
  5  6  1  0  0  0
  6  7  1  0  0  0
  6  2  1  0  0  0
  7  8  1  0  0  0
  8 12  1  0  0  0
  9 12  1  0  0  0
  9 10  1  0  0  0
 10  6  1  0  0  0
 14 19  2  0  0  0
 15 20  2  0  0  0
 15 21  1  0  0  0
 17 18  1  0  0  0
 18 13  2  0  0  0
 32 26  1  0  0  0
 12 13  1  0  0  0
 21 16  1  0  0  0
  2  1  2  0  0  0
 24 25  2  0  0  0
 26 27  1  0  0  0
 28 29  1  0  0  0
 30 31  1  0  0  0
 13 19  1  0  0  0
 14 20  1  0  0  0
 16 17  2  0  0  0
 18 15  1  0  0  0
 32 33  1  0  0  0
 21 22  1  0  0  0
M  END
> <minimizedAffinity>
-9.83447

$$$$
CHEMBL3669559


 33 38  0  0  0  0  0  0  0  0999 V2000
   -1.6979   16.5960   -7.3716 O   0  0  0  0  0  0  0  0  0  0  0  0
   -2.6178   17.1588   -6.7808 C   0  0  0  0  0  0  0  0  0  0  0  0
   -4.3077   18.9339   -7.0741 C   0  0  0  0  0  0  0  0  0  0  0  0
   -5.1633   18.3400   -5.9707 C   0  0  0  0  0  0  0  0  0  0  0  0
   -4.9304   16.8351   -5.8665 C   0  0  0  0  0  0  0  0  0  0  0  0
   -3.4391   16.4896   -5.6516 C   0  0  0  0  0  0  0  0  0  0  0  0
   -2.9428   17.0422   -4.2812 C   0  0  0  0  0  0  0  0  0  0  0  0
   -2.2378   16.0073   -3.4013 C   0  0  0  0  0  0  0  0  0  0  0  0
   -1.8406   14.5023   -5.3409 C   0  0  0  0  0  0  0  0  0  0  0  0
   -3.2665   14.9536   -5.6915 C   0  0  0  0  0  0  0  0  0  0  0  0
   -2.9284   18.4912   -7.0177 N   0  0  0  0  0  0  0  0  0  0  0  0
   -1.3069   15.2305   -4.2025 N   0  0  0  0  0  0  0  0  0  0  0  0
    0.0229   15.1516   -3.8123 C   0  0  0  0  0  0  0  0  0  0  0  0
    1.8441   13.7545   -3.2821 C   0  0  0  0  0  0  0  0  0  0  0  0
    2.1832   15.9237   -3.1034 C   0  0  0  0  0  0  0  0  0  0  0  0
    2.0491   18.1557   -3.0425 C   0  0  0  0  0  0  0  0  0  0  0  0
    0.8302   17.6710   -3.4686 C   0  0  0  0  0  0  0  0  0  0  0  0
    0.8900   16.2405   -3.5111 C   0  0  0  0  0  0  0  0  0  0  0  0
    0.5725   13.9039   -3.6903 N   0  0  0  0  0  0  0  0  0  0  0  0
    2.7274   14.7079   -2.9672 N   0  0  0  0  0  0  0  0  0  0  0  0
    2.8608   17.0789   -2.8279 N   0  0  0  0  0  0  0  0  0  0  0  0
    3.8154   17.1011   -2.5016 H   0  0  0  0  0  0  0  0  0  0  0  0
   -1.8819   19.3800   -7.5088 C   0  0  0  0  0  0  0  0  0  0  0  0
   -1.4714   20.2383   -6.3495 C   0  0  0  0  0  0  0  0  0  0  0  0
   -0.3583   20.0682   -5.5441 C   0  0  0  0  0  0  0  0  0  0  0  0
   -1.3214   22.0026   -4.9084 C   0  0  0  0  0  0  0  0  0  0  0  0
   -1.6163   23.2305   -4.3028 C   0  0  0  0  0  0  0  0  0  0  0  0
   -2.7568   23.9109   -4.7379 C   0  0  0  0  0  0  0  0  0  0  0  0
   -3.5668   23.3829   -5.7389 C   0  0  0  0  0  0  0  0  0  0  0  0
   -3.2474   22.1641   -6.3457 C   0  0  0  0  0  0  0  0  0  0  0  0
   -2.1044   21.4539   -5.9242 C   0  0  0  0  0  0  0  0  0  0  0  0
   -0.2749   21.1381   -4.6940 N   0  0  0  0  0  0  0  0  0  0  0  0
    0.4649   21.2965   -4.0250 H   0  0  0  0  0  0  0  0  0  0  0  0
  2 11  1  0  0  0
 23 11  1  0  0  0
 23 24  1  0  0  0
 25 32  1  0  0  0
 27 28  2  0  0  0
 29 30  2  0  0  0
 31 24  1  0  0  0
 31 26  2  0  0  0
  3 11  1  0  0  0
  3  4  1  0  0  0
  4  5  1  0  0  0
  5  6  1  0  0  0
  6  7  1  0  0  0
  6  2  1  0  0  0
  7  8  1  0  0  0
  8 12  1  0  0  0
  9 12  1  0  0  0
  9 10  1  0  0  0
 10  6  1  0  0  0
 14 19  2  0  0  0
 15 20  2  0  0  0
 15 21  1  0  0  0
 17 18  1  0  0  0
 18 13  2  0  0  0
 32 26  1  0  0  0
 12 13  1  0  0  0
 21 16  1  0  0  0
  2  1  2  0  0  0
 24 25  2  0  0  0
 26 27  1  0  0  0
 28 29  1  0  0  0
 30 31  1  0  0  0
 13 19  1  0  0  0
 14 20  1  0  0  0
 16 17  2  0  0  0
 18 15  1  0  0  0
 32 33  1  0  0  0
 21 22  1  0  0  0
M  END
> <minimizedAffinity>
-9.72411

$$$$
CHEMBL3669559


 33 38  0  0  0  0  0  0  0  0999 V2000
   -1.3568   17.2058   -7.7480 O   0  0  0  0  0  0  0  0  0  0  0  0
   -1.4916   16.8605   -6.5756 C   0  0  0  0  0  0  0  0  0  0  0  0
   -1.0585   14.9661   -5.0535 C   0  0  0  0  0  0  0  0  0  0  0  0
   -1.1199   15.8850   -3.8477 C   0  0  0  0  0  0  0  0  0  0  0  0
   -0.7063   17.3022   -4.2354 C   0  0  0  0  0  0  0  0  0  0  0  0
   -1.5599   17.8615   -5.3963 C   0  0  0  0  0  0  0  0  0  0  0  0
   -3.0478   18.0115   -4.9568 C   0  0  0  0  0  0  0  0  0  0  0  0
   -3.6491   19.3931   -5.2255 C   0  0  0  0  0  0  0  0  0  0  0  0
   -1.8665   19.9438   -6.8699 C   0  0  0  0  0  0  0  0  0  0  0  0
   -0.9963   19.2379   -5.8190 C   0  0  0  0  0  0  0  0  0  0  0  0
   -1.6954   15.5321   -6.2264 N   0  0  0  0  0  0  0  0  0  0  0  0
   -3.2819   19.8402   -6.5587 N   0  0  0  0  0  0  0  0  0  0  0  0
   -4.2795   20.2196   -7.4463 C   0  0  0  0  0  0  0  0  0  0  0  0
   -5.1883   21.9390   -8.7757 C   0  0  0  0  0  0  0  0  0  0  0  0
   -6.2741   20.0224   -8.7684 C   0  0  0  0  0  0  0  0  0  0  0  0
   -7.0332   17.9456   -8.4304 C   0  0  0  0  0  0  0  0  0  0  0  0
   -5.8707   18.0937   -7.7033 C   0  0  0  0  0  0  0  0  0  0  0  0
   -5.3672   19.4201   -7.9002 C   0  0  0  0  0  0  0  0  0  0  0  0
   -4.2339   21.4954   -7.9402 N   0  0  0  0  0  0  0  0  0  0  0  0
   -6.2476   21.2726   -9.2471 N   0  0  0  0  0  0  0  0  0  0  0  0
   -7.2617   19.1278   -9.0744 N   0  0  0  0  0  0  0  0  0  0  0  0
   -8.0406   19.3423   -9.6790 H   0  0  0  0  0  0  0  0  0  0  0  0
   -2.3012   14.6340   -7.2025 C   0  0  0  0  0  0  0  0  0  0  0  0
   -3.6870   14.3400   -6.7104 C   0  0  0  0  0  0  0  0  0  0  0  0
   -4.7789   15.1902   -6.7478 C   0  0  0  0  0  0  0  0  0  0  0  0
   -5.5353   13.2065   -5.9954 C   0  0  0  0  0  0  0  0  0  0  0  0
   -6.3338   12.1425   -5.5575 C   0  0  0  0  0  0  0  0  0  0  0  0
   -5.7045   10.9204   -5.3054 C   0  0  0  0  0  0  0  0  0  0  0  0
   -4.3326   10.7712   -5.4861 C   0  0  0  0  0  0  0  0  0  0  0  0
   -3.5531   11.8392   -5.9417 C   0  0  0  0  0  0  0  0  0  0  0  0
   -4.1608   13.0850   -6.2006 C   0  0  0  0  0  0  0  0  0  0  0  0
   -5.8806   14.4944   -6.3279 N   0  0  0  0  0  0  0  0  0  0  0  0
   -6.8230   14.8560   -6.2963 H   0  0  0  0  0  0  0  0  0  0  0  0
  2 11  1  0  0  0
 23 11  1  0  0  0
 23 24  1  0  0  0
 25 32  1  0  0  0
 27 28  2  0  0  0
 29 30  2  0  0  0
 31 24  1  0  0  0
 31 26  2  0  0  0
  3 11  1  0  0  0
  3  4  1  0  0  0
  4  5  1  0  0  0
  5  6  1  0  0  0
  6  7  1  0  0  0
  6  2  1  0  0  0
  7  8  1  0  0  0
  8 12  1  0  0  0
  9 12  1  0  0  0
  9 10  1  0  0  0
 10  6  1  0  0  0
 14 19  2  0  0  0
 15 20  2  0  0  0
 15 21  1  0  0  0
 17 18  1  0  0  0
 18 13  2  0  0  0
 32 26  1  0  0  0
 12 13  1  0  0  0
 21 16  1  0  0  0
  2  1  2  0  0  0
 24 25  2  0  0  0
 26 27  1  0  0  0
 28 29  1  0  0  0
 30 31  1  0  0  0
 13 19  1  0  0  0
 14 20  1  0  0  0
 16 17  2  0  0  0
 18 15  1  0  0  0
 32 33  1  0  0  0
 21 22  1  0  0  0
M  END
> <minimizedAffinity>
-9.53739

$$$$
CHEMBL3669559


 33 38  0  0  0  0  0  0  0  0999 V2000
   -3.6686   16.7578   -4.3096 O   0  0  0  0  0  0  0  0  0  0  0  0
   -3.1770   17.2874   -5.3046 C   0  0  0  0  0  0  0  0  0  0  0  0
   -2.9768   19.4725   -6.4351 C   0  0  0  0  0  0  0  0  0  0  0  0
   -1.7472   19.0010   -7.1887 C   0  0  0  0  0  0  0  0  0  0  0  0
   -1.0093   17.9304   -6.3891 C   0  0  0  0  0  0  0  0  0  0  0  0
   -1.9242   16.7375   -6.0295 C   0  0  0  0  0  0  0  0  0  0  0  0
   -2.3830   15.9931   -7.3200 C   0  0  0  0  0  0  0  0  0  0  0  0
   -2.1477   14.4811   -7.2937 C   0  0  0  0  0  0  0  0  0  0  0  0
   -1.9231   14.4723   -4.8170 C   0  0  0  0  0  0  0  0  0  0  0  0
   -1.1480   15.7656   -5.1111 C   0  0  0  0  0  0  0  0  0  0  0  0
   -3.7762   18.3781   -5.9203 N   0  0  0  0  0  0  0  0  0  0  0  0
   -2.5597   13.9398   -6.0095 N   0  0  0  0  0  0  0  0  0  0  0  0
   -3.4751   12.8968   -5.9744 C   0  0  0  0  0  0  0  0  0  0  0  0
   -3.8190   10.5688   -6.0823 C   0  0  0  0  0  0  0  0  0  0  0  0
   -5.6196   11.8210   -5.8766 C   0  0  0  0  0  0  0  0  0  0  0  0
   -7.1252   13.4658   -5.6990 C   0  0  0  0  0  0  0  0  0  0  0  0
   -5.8727   14.0421   -5.7356 C   0  0  0  0  0  0  0  0  0  0  0  0
   -4.8900   13.0069   -5.8543 C   0  0  0  0  0  0  0  0  0  0  0  0
   -2.9852   11.6226   -6.0735 N   0  0  0  0  0  0  0  0  0  0  0  0
   -5.1529   10.5708   -5.9869 N   0  0  0  0  0  0  0  0  0  0  0  0
   -6.9518   12.1139   -5.7828 N   0  0  0  0  0  0  0  0  0  0  0  0
   -7.6785   11.4139   -5.7914 H   0  0  0  0  0  0  0  0  0  0  0  0
   -5.2155   18.5628   -5.7767 C   0  0  0  0  0  0  0  0  0  0  0  0
   -5.8309   18.1566   -7.0827 C   0  0  0  0  0  0  0  0  0  0  0  0
   -5.9360   16.8714   -7.5864 C   0  0  0  0  0  0  0  0  0  0  0  0
   -7.0529   18.2125   -9.0103 C   0  0  0  0  0  0  0  0  0  0  0  0
   -7.8409   18.7227  -10.0496 C   0  0  0  0  0  0  0  0  0  0  0  0
   -8.0719   20.1008  -10.0719 C   0  0  0  0  0  0  0  0  0  0  0  0
   -7.5364   20.9321   -9.0925 C   0  0  0  0  0  0  0  0  0  0  0  0
   -6.7668   20.4034   -8.0514 C   0  0  0  0  0  0  0  0  0  0  0  0
   -6.5144   19.0169   -8.0057 C   0  0  0  0  0  0  0  0  0  0  0  0
   -6.6801   16.9189   -8.7346 N   0  0  0  0  0  0  0  0  0  0  0  0
   -6.9514   16.1192   -9.2885 H   0  0  0  0  0  0  0  0  0  0  0  0
  2 11  1  0  0  0
 23 11  1  0  0  0
 23 24  1  0  0  0
 25 32  1  0  0  0
 27 28  2  0  0  0
 29 30  2  0  0  0
 31 24  1  0  0  0
 31 26  2  0  0  0
  3 11  1  0  0  0
  3  4  1  0  0  0
  4  5  1  0  0  0
  5  6  1  0  0  0
  6  7  1  0  0  0
  6  2  1  0  0  0
  7  8  1  0  0  0
  8 12  1  0  0  0
  9 12  1  0  0  0
  9 10  1  0  0  0
 10  6  1  0  0  0
 14 19  2  0  0  0
 15 20  2  0  0  0
 15 21  1  0  0  0
 17 18  1  0  0  0
 18 13  2  0  0  0
 32 26  1  0  0  0
 12 13  1  0  0  0
 21 16  1  0  0  0
  2  1  2  0  0  0
 24 25  2  0  0  0
 26 27  1  0  0  0
 28 29  1  0  0  0
 30 31  1  0  0  0
 13 19  1  0  0  0
 14 20  1  0  0  0
 16 17  2  0  0  0
 18 15  1  0  0  0
 32 33  1  0  0  0
 21 22  1  0  0  0
M  END
> <minimizedAffinity>
-9.52053

$$$$
CHEMBL3669559


 33 38  0  0  0  0  0  0  0  0999 V2000
   -4.7068   17.4616   -4.8481 O   0  0  0  0  0  0  0  0  0  0  0  0
   -4.6815   17.7562   -6.0416 C   0  0  0  0  0  0  0  0  0  0  0  0
   -6.1665   18.0924   -7.9845 C   0  0  0  0  0  0  0  0  0  0  0  0
   -5.1118   18.9323   -8.6803 C   0  0  0  0  0  0  0  0  0  0  0  0
   -4.2143   19.6190   -7.6542 C   0  0  0  0  0  0  0  0  0  0  0  0
   -3.5601   18.6093   -6.6837 C   0  0  0  0  0  0  0  0  0  0  0  0
   -2.5925   17.6604   -7.4539 C   0  0  0  0  0  0  0  0  0  0  0  0
   -1.1887   17.5662   -6.8515 C   0  0  0  0  0  0  0  0  0  0  0  0
   -1.9711   18.4675   -4.6697 C   0  0  0  0  0  0  0  0  0  0  0  0
   -2.7797   19.3861   -5.5984 C   0  0  0  0  0  0  0  0  0  0  0  0
   -5.6183   17.2551   -6.9355 N   0  0  0  0  0  0  0  0  0  0  0  0
   -1.2796   17.4246   -5.4080 N   0  0  0  0  0  0  0  0  0  0  0  0
   -0.6461   16.3555   -4.7894 C   0  0  0  0  0  0  0  0  0  0  0  0
   -0.6717   14.0456   -4.3277 C   0  0  0  0  0  0  0  0  0  0  0  0
    0.9809   15.2067   -3.4482 C   0  0  0  0  0  0  0  0  0  0  0  0
    2.4244   16.7703   -2.7589 C   0  0  0  0  0  0  0  0  0  0  0  0
    1.4818   17.3873   -3.5545 C   0  0  0  0  0  0  0  0  0  0  0  0
    0.5416   16.4051   -4.0050 C   0  0  0  0  0  0  0  0  0  0  0  0
   -1.2134   15.1178   -4.9299 N   0  0  0  0  0  0  0  0  0  0  0  0
    0.4271   13.9934   -3.5671 N   0  0  0  0  0  0  0  0  0  0  0  0
    2.1056   15.4435   -2.7078 N   0  0  0  0  0  0  0  0  0  0  0  0
    2.5984   14.7260   -2.1974 H   0  0  0  0  0  0  0  0  0  0  0  0
   -6.2712   15.9871   -6.6318 C   0  0  0  0  0  0  0  0  0  0  0  0
   -5.2096   14.9305   -6.7089 C   0  0  0  0  0  0  0  0  0  0  0  0
   -3.9337   15.0723   -7.2271 C   0  0  0  0  0  0  0  0  0  0  0  0
   -4.0378   13.0076   -6.3329 C   0  0  0  0  0  0  0  0  0  0  0  0
   -3.7413   11.7235   -5.8590 C   0  0  0  0  0  0  0  0  0  0  0  0
   -4.7600   11.0204   -5.2102 C   0  0  0  0  0  0  0  0  0  0  0  0
   -6.0224   11.5817   -5.0425 C   0  0  0  0  0  0  0  0  0  0  0  0
   -6.2960   12.8726   -5.5059 C   0  0  0  0  0  0  0  0  0  0  0  0
   -5.2881   13.6039   -6.1675 C   0  0  0  0  0  0  0  0  0  0  0  0
   -3.2400   13.9173   -6.9843 N   0  0  0  0  0  0  0  0  0  0  0  0
   -2.2698   13.7588   -7.2157 H   0  0  0  0  0  0  0  0  0  0  0  0
  2 11  1  0  0  0
 23 11  1  0  0  0
 23 24  1  0  0  0
 25 32  1  0  0  0
 27 28  2  0  0  0
 29 30  2  0  0  0
 31 24  1  0  0  0
 31 26  2  0  0  0
  3 11  1  0  0  0
  3  4  1  0  0  0
  4  5  1  0  0  0
  5  6  1  0  0  0
  6  7  1  0  0  0
  6  2  1  0  0  0
  7  8  1  0  0  0
  8 12  1  0  0  0
  9 12  1  0  0  0
  9 10  1  0  0  0
 10  6  1  0  0  0
 14 19  2  0  0  0
 15 20  2  0  0  0
 15 21  1  0  0  0
 17 18  1  0  0  0
 18 13  2  0  0  0
 32 26  1  0  0  0
 12 13  1  0  0  0
 21 16  1  0  0  0
  2  1  2  0  0  0
 24 25  2  0  0  0
 26 27  1  0  0  0
 28 29  1  0  0  0
 30 31  1  0  0  0
 13 19  1  0  0  0
 14 20  1  0  0  0
 16 17  2  0  0  0
 18 15  1  0  0  0
 32 33  1  0  0  0
 21 22  1  0  0  0
M  END
> <minimizedAffinity>
-9.45047

$$$$
CHEMBL3669559


 33 38  0  0  0  0  0  0  0  0999 V2000
   -2.7898   16.9232   -3.5908 O   0  0  0  0  0  0  0  0  0  0  0  0
   -2.4066   16.0465   -4.3632 C   0  0  0  0  0  0  0  0  0  0  0  0
   -0.9310   14.0706   -4.4702 C   0  0  0  0  0  0  0  0  0  0  0  0
   -1.6922   13.5326   -5.6673 C   0  0  0  0  0  0  0  0  0  0  0  0
   -3.1395   14.0170   -5.6410 C   0  0  0  0  0  0  0  0  0  0  0  0
   -3.2370   15.5583   -5.5754 C   0  0  0  0  0  0  0  0  0  0  0  0
   -2.6503   16.1979   -6.8702 C   0  0  0  0  0  0  0  0  0  0  0  0
   -3.5787   17.2050   -7.5531 C   0  0  0  0  0  0  0  0  0  0  0  0
   -4.9374   17.4825   -5.4888 C   0  0  0  0  0  0  0  0  0  0  0  0
   -4.7206   15.9634   -5.4159 C   0  0  0  0  0  0  0  0  0  0  0  0
   -1.1384   15.4903   -4.2622 N   0  0  0  0  0  0  0  0  0  0  0  0
   -4.1646   18.0888   -6.5593 N   0  0  0  0  0  0  0  0  0  0  0  0
   -4.0317   19.4623   -6.7096 C   0  0  0  0  0  0  0  0  0  0  0  0
   -2.8592   21.4104   -6.0933 C   0  0  0  0  0  0  0  0  0  0  0  0
   -4.5509   21.6770   -7.4787 C   0  0  0  0  0  0  0  0  0  0  0  0
   -6.3293   21.4616   -8.8183 C   0  0  0  0  0  0  0  0  0  0  0  0
   -5.9831   20.2038   -8.3708 C   0  0  0  0  0  0  0  0  0  0  0  0
   -4.8473   20.3166   -7.5055 C   0  0  0  0  0  0  0  0  0  0  0  0
   -3.0219   20.0784   -6.0209 N   0  0  0  0  0  0  0  0  0  0  0  0
   -3.5753   22.2924   -6.7987 N   0  0  0  0  0  0  0  0  0  0  0  0
   -5.4455   22.3450   -8.2678 N   0  0  0  0  0  0  0  0  0  0  0  0
   -5.4383   23.3460   -8.3946 H   0  0  0  0  0  0  0  0  0  0  0  0
   -0.0729   16.2766   -3.6517 C   0  0  0  0  0  0  0  0  0  0  0  0
    0.1123   17.4887   -4.5153 C   0  0  0  0  0  0  0  0  0  0  0  0
   -0.2777   17.6345   -5.8355 C   0  0  0  0  0  0  0  0  0  0  0  0
    0.5018   19.6406   -5.1710 C   0  0  0  0  0  0  0  0  0  0  0  0
    0.8612   20.9917   -5.0907 C   0  0  0  0  0  0  0  0  0  0  0  0
    1.3935   21.4505   -3.8827 C   0  0  0  0  0  0  0  0  0  0  0  0
    1.5571   20.5909   -2.8004 C   0  0  0  0  0  0  0  0  0  0  0  0
    1.1758   19.2486   -2.8921 C   0  0  0  0  0  0  0  0  0  0  0  0
    0.6392   18.7573   -4.1000 C   0  0  0  0  0  0  0  0  0  0  0  0
   -0.0493   18.9311   -6.2109 N   0  0  0  0  0  0  0  0  0  0  0  0
   -0.2811   19.3286   -7.1100 H   0  0  0  0  0  0  0  0  0  0  0  0
  2 11  1  0  0  0
 23 11  1  0  0  0
 23 24  1  0  0  0
 25 32  1  0  0  0
 27 28  2  0  0  0
 29 30  2  0  0  0
 31 24  1  0  0  0
 31 26  2  0  0  0
  3 11  1  0  0  0
  3  4  1  0  0  0
  4  5  1  0  0  0
  5  6  1  0  0  0
  6  7  1  0  0  0
  6  2  1  0  0  0
  7  8  1  0  0  0
  8 12  1  0  0  0
  9 12  1  0  0  0
  9 10  1  0  0  0
 10  6  1  0  0  0
 14 19  2  0  0  0
 15 20  2  0  0  0
 15 21  1  0  0  0
 17 18  1  0  0  0
 18 13  2  0  0  0
 32 26  1  0  0  0
 12 13  1  0  0  0
 21 16  1  0  0  0
  2  1  2  0  0  0
 24 25  2  0  0  0
 26 27  1  0  0  0
 28 29  1  0  0  0
 30 31  1  0  0  0
 13 19  1  0  0  0
 14 20  1  0  0  0
 16 17  2  0  0  0
 18 15  1  0  0  0
 32 33  1  0  0  0
 21 22  1  0  0  0
M  END
> <minimizedAffinity>
-9.36172

$$$$
CHEMBL3393341


 25 28  0  0  0  0  0  0  0  0999 V2000
    0.0056   18.5921   -4.9256 C   0  0  0  0  0  0  0  0  0  0  0  0
    0.9580   20.7171   -4.8637 C   0  0  0  0  0  0  0  0  0  0  0  0
   -0.8959   20.4893   -6.0500 C   0  0  0  0  0  0  0  0  0  0  0  0
   -2.6746   19.7220   -7.1775 C   0  0  0  0  0  0  0  0  0  0  0  0
   -2.0787   18.6316   -6.5673 C   0  0  0  0  0  0  0  0  0  0  0  0
   -0.9722   19.1284   -5.7952 C   0  0  0  0  0  0  0  0  0  0  0  0
    0.9956   19.4196   -4.5030 N   0  0  0  0  0  0  0  0  0  0  0  0
    0.0359   21.3462   -5.6107 N   0  0  0  0  0  0  0  0  0  0  0  0
   -1.9499   20.8386   -6.8472 N   0  0  0  0  0  0  0  0  0  0  0  0
   -2.1237   21.7814   -7.1639 H   0  0  0  0  0  0  0  0  0  0  0  0
    2.4042   14.5296   -3.4919 C   0  0  0  0  0  0  0  0  0  0  0  0
    1.1398   15.1896   -4.0317 C   0  0  0  0  0  0  0  0  0  0  0  0
   -0.1046   14.6755   -3.2905 C   0  0  0  0  0  0  0  0  0  0  0  0
   -1.3769   15.3632   -3.7829 C   0  0  0  0  0  0  0  0  0  0  0  0
   -1.2430   16.8848   -3.7948 C   0  0  0  0  0  0  0  0  0  0  0  0
    1.2218   16.7233   -3.9554 C   0  0  0  0  0  0  0  0  0  0  0  0
   -0.0189   17.2685   -4.4988 N   0  0  0  0  0  0  0  0  0  0  0  0
   -2.5151   17.2624   -6.8017 C   0  0  0  0  0  0  0  0  0  0  0  0
   -1.7034   16.3502   -7.4865 C   0  0  0  0  0  0  0  0  0  0  0  0
   -2.1535   15.0503   -7.7346 C   0  0  0  0  0  0  0  0  0  0  0  0
   -3.4201   14.6530   -7.3035 C   0  0  0  0  0  0  0  0  0  0  0  0
   -4.2350   15.5511   -6.6093 C   0  0  0  0  0  0  0  0  0  0  0  0
   -3.7750   16.8461   -6.3478 C   0  0  0  0  0  0  0  0  0  0  0  0
   -5.5559   15.1627   -6.2079 C   0  0  0  0  0  0  0  0  0  0  0  0
   -6.6283   14.8418   -5.9036 N   0  0  0  0  0  0  0  0  0  0  0  0
 12 11  1  0  0  0
 12 13  1  0  0  0
 13 14  1  0  0  0
 14 15  1  0  0  0
 15 17  1  0  0  0
 16 17  1  0  0  0
 16 12  1  0  0  0
  2  7  2  0  0  0
  3  8  2  0  0  0
  3  9  1  0  0  0
  5 18  1  0  0  0
  5  6  1  0  0  0
 19 20  2  0  0  0
 21 22  2  0  0  0
 22 24  1  0  0  0
 23 18  2  0  0  0
  6  1  2  0  0  0
 17  1  1  0  0  0
  9  4  1  0  0  0
  1  7  1  0  0  0
  2  8  1  0  0  0
  4  5  2  0  0  0
 18 19  1  0  0  0
 20 21  1  0  0  0
 22 23  1  0  0  0
  6  3  1  0  0  0
 24 25  3  0  0  0
  9 10  1  0  0  0
M  END
> <minimizedAffinity>
-8.72113

$$$$
CHEMBL3393341


 25 28  0  0  0  0  0  0  0  0999 V2000
    0.2233   17.4131   -4.0974 C   0  0  0  0  0  0  0  0  0  0  0  0
    1.8788   18.5467   -2.9137 C   0  0  0  0  0  0  0  0  0  0  0  0
    2.0736   16.3464   -3.0416 C   0  0  0  0  0  0  0  0  0  0  0  0
    1.7554   14.1509   -3.3617 C   0  0  0  0  0  0  0  0  0  0  0  0
    0.6592   14.8032   -3.8996 C   0  0  0  0  0  0  0  0  0  0  0  0
    0.8882   16.2147   -3.7488 C   0  0  0  0  0  0  0  0  0  0  0  0
    0.7330   18.5783   -3.6218 N   0  0  0  0  0  0  0  0  0  0  0  0
    2.6330   17.4808   -2.5994 N   0  0  0  0  0  0  0  0  0  0  0  0
    2.6044   15.1008   -2.8538 N   0  0  0  0  0  0  0  0  0  0  0  0
    3.4761   14.9305   -2.3738 H   0  0  0  0  0  0  0  0  0  0  0  0
   -4.6453   16.8191   -4.6041 C   0  0  0  0  0  0  0  0  0  0  0  0
   -3.2581   16.9067   -5.2314 C   0  0  0  0  0  0  0  0  0  0  0  0
   -3.2744   17.8169   -6.4698 C   0  0  0  0  0  0  0  0  0  0  0  0
   -1.8821   17.9578   -7.0830 C   0  0  0  0  0  0  0  0  0  0  0  0
   -0.8295   18.3387   -6.0436 C   0  0  0  0  0  0  0  0  0  0  0  0
   -2.2051   17.3871   -4.2189 C   0  0  0  0  0  0  0  0  0  0  0  0
   -0.9136   17.4315   -4.8985 N   0  0  0  0  0  0  0  0  0  0  0  0
   -0.5024   14.0946   -4.4179 C   0  0  0  0  0  0  0  0  0  0  0  0
   -1.0436   12.9963   -3.7392 C   0  0  0  0  0  0  0  0  0  0  0  0
   -2.1365   12.3053   -4.2701 C   0  0  0  0  0  0  0  0  0  0  0  0
   -2.6949   12.7042   -5.4854 C   0  0  0  0  0  0  0  0  0  0  0  0
   -2.1704   13.8058   -6.1666 C   0  0  0  0  0  0  0  0  0  0  0  0
   -1.0872   14.5057   -5.6244 C   0  0  0  0  0  0  0  0  0  0  0  0
   -2.7093   14.1889   -7.4392 C   0  0  0  0  0  0  0  0  0  0  0  0
   -3.1353   14.5183   -8.4666 N   0  0  0  0  0  0  0  0  0  0  0  0
 12 11  1  0  0  0
 12 13  1  0  0  0
 13 14  1  0  0  0
 14 15  1  0  0  0
 15 17  1  0  0  0
 16 17  1  0  0  0
 16 12  1  0  0  0
  2  7  2  0  0  0
  3  8  2  0  0  0
  3  9  1  0  0  0
  5 18  1  0  0  0
  5  6  1  0  0  0
 19 20  2  0  0  0
 21 22  2  0  0  0
 22 24  1  0  0  0
 23 18  2  0  0  0
  6  1  2  0  0  0
 17  1  1  0  0  0
  9  4  1  0  0  0
  1  7  1  0  0  0
  2  8  1  0  0  0
  4  5  2  0  0  0
 18 19  1  0  0  0
 20 21  1  0  0  0
 22 23  1  0  0  0
  6  3  1  0  0  0
 24 25  3  0  0  0
  9 10  1  0  0  0
M  END
> <minimizedAffinity>
-8.53102

$$$$
CHEMBL3393341


 25 28  0  0  0  0  0  0  0  0999 V2000
    0.0690   14.0719   -4.0943 C   0  0  0  0  0  0  0  0  0  0  0  0
    2.0632   13.3968   -3.0972 C   0  0  0  0  0  0  0  0  0  0  0  0
    1.6239   15.5653   -3.0803 C   0  0  0  0  0  0  0  0  0  0  0  0
    0.7863   17.6162   -3.4206 C   0  0  0  0  0  0  0  0  0  0  0  0
   -0.0547   16.7223   -4.0609 C   0  0  0  0  0  0  0  0  0  0  0  0
    0.4469   15.4013   -3.7947 C   0  0  0  0  0  0  0  0  0  0  0  0
    0.9341   13.0800   -3.7606 N   0  0  0  0  0  0  0  0  0  0  0  0
    2.4766   14.6081   -2.6902 N   0  0  0  0  0  0  0  0  0  0  0  0
    1.7921   16.8979   -2.8264 N   0  0  0  0  0  0  0  0  0  0  0  0
    2.5724   17.2746   -2.3081 H   0  0  0  0  0  0  0  0  0  0  0  0
   -3.0067   14.5002   -7.9244 C   0  0  0  0  0  0  0  0  0  0  0  0
   -2.7706   14.1488   -6.4592 C   0  0  0  0  0  0  0  0  0  0  0  0
   -3.4610   12.8245   -6.0963 C   0  0  0  0  0  0  0  0  0  0  0  0
   -3.1934   12.4297   -4.6449 C   0  0  0  0  0  0  0  0  0  0  0  0
   -1.7058   12.4718   -4.3002 C   0  0  0  0  0  0  0  0  0  0  0  0
   -1.2712   14.0890   -6.1231 C   0  0  0  0  0  0  0  0  0  0  0  0
   -1.1396   13.7584   -4.7071 N   0  0  0  0  0  0  0  0  0  0  0  0
   -1.1654   17.1490   -4.9002 C   0  0  0  0  0  0  0  0  0  0  0  0
   -0.9537   17.9430   -6.0336 C   0  0  0  0  0  0  0  0  0  0  0  0
   -2.0352   18.3739   -6.8073 C   0  0  0  0  0  0  0  0  0  0  0  0
   -3.3371   18.0179   -6.4522 C   0  0  0  0  0  0  0  0  0  0  0  0
   -3.5601   17.2166   -5.3293 C   0  0  0  0  0  0  0  0  0  0  0  0
   -2.4744   16.7728   -4.5667 C   0  0  0  0  0  0  0  0  0  0  0  0
   -4.8988   16.8892   -4.9326 C   0  0  0  0  0  0  0  0  0  0  0  0
   -5.9880   16.6260   -4.6326 N   0  0  0  0  0  0  0  0  0  0  0  0
 12 11  1  0  0  0
 12 13  1  0  0  0
 13 14  1  0  0  0
 14 15  1  0  0  0
 15 17  1  0  0  0
 16 17  1  0  0  0
 16 12  1  0  0  0
  2  7  2  0  0  0
  3  8  2  0  0  0
  3  9  1  0  0  0
  5 18  1  0  0  0
  5  6  1  0  0  0
 19 20  2  0  0  0
 21 22  2  0  0  0
 22 24  1  0  0  0
 23 18  2  0  0  0
  6  1  2  0  0  0
 17  1  1  0  0  0
  9  4  1  0  0  0
  1  7  1  0  0  0
  2  8  1  0  0  0
  4  5  2  0  0  0
 18 19  1  0  0  0
 20 21  1  0  0  0
 22 23  1  0  0  0
  6  3  1  0  0  0
 24 25  3  0  0  0
  9 10  1  0  0  0
M  END
> <minimizedAffinity>
-8.40566

$$$$
CHEMBL3393341


 25 28  0  0  0  0  0  0  0  0999 V2000
   -1.1307   16.3515   -5.0366 C   0  0  0  0  0  0  0  0  0  0  0  0
    0.1989   17.8436   -3.8397 C   0  0  0  0  0  0  0  0  0  0  0  0
    0.5726   15.6880   -3.5086 C   0  0  0  0  0  0  0  0  0  0  0  0
    0.4771   13.4495   -3.4478 C   0  0  0  0  0  0  0  0  0  0  0  0
   -0.5492   13.8779   -4.2722 C   0  0  0  0  0  0  0  0  0  0  0  0
   -0.4540   15.3099   -4.3606 C   0  0  0  0  0  0  0  0  0  0  0  0
   -0.8005   17.6293   -4.7175 N   0  0  0  0  0  0  0  0  0  0  0  0
    0.9599   16.9350   -3.2078 N   0  0  0  0  0  0  0  0  0  0  0  0
    1.1500   14.5578   -3.0009 N   0  0  0  0  0  0  0  0  0  0  0  0
    1.9314   14.5674   -2.3617 H   0  0  0  0  0  0  0  0  0  0  0  0
   -5.6827   17.0931   -6.7807 C   0  0  0  0  0  0  0  0  0  0  0  0
   -4.4073   16.2578   -6.7446 C   0  0  0  0  0  0  0  0  0  0  0  0
   -3.9610   15.8793   -8.1657 C   0  0  0  0  0  0  0  0  0  0  0  0
   -2.6562   15.0846   -8.1528 C   0  0  0  0  0  0  0  0  0  0  0  0
   -1.5726   15.7677   -7.3206 C   0  0  0  0  0  0  0  0  0  0  0  0
   -3.2755   16.9797   -5.9946 C   0  0  0  0  0  0  0  0  0  0  0  0
   -2.1037   16.1087   -6.0004 N   0  0  0  0  0  0  0  0  0  0  0  0
   -1.5445   12.9712   -4.8266 C   0  0  0  0  0  0  0  0  0  0  0  0
   -1.2016   11.6726   -5.2215 C   0  0  0  0  0  0  0  0  0  0  0  0
   -2.1620   10.8281   -5.7856 C   0  0  0  0  0  0  0  0  0  0  0  0
   -3.4719   11.2760   -5.9630 C   0  0  0  0  0  0  0  0  0  0  0  0
   -3.8288   12.5663   -5.5625 C   0  0  0  0  0  0  0  0  0  0  0  0
   -2.8694   13.4034   -4.9828 C   0  0  0  0  0  0  0  0  0  0  0  0
   -5.1608   13.0477   -5.7878 C   0  0  0  0  0  0  0  0  0  0  0  0
   -6.2330   13.4410   -5.9910 N   0  0  0  0  0  0  0  0  0  0  0  0
 12 11  1  0  0  0
 12 13  1  0  0  0
 13 14  1  0  0  0
 14 15  1  0  0  0
 15 17  1  0  0  0
 16 17  1  0  0  0
 16 12  1  0  0  0
  2  7  2  0  0  0
  3  8  2  0  0  0
  3  9  1  0  0  0
  5 18  1  0  0  0
  5  6  1  0  0  0
 19 20  2  0  0  0
 21 22  2  0  0  0
 22 24  1  0  0  0
 23 18  2  0  0  0
  6  1  2  0  0  0
 17  1  1  0  0  0
  9  4  1  0  0  0
  1  7  1  0  0  0
  2  8  1  0  0  0
  4  5  2  0  0  0
 18 19  1  0  0  0
 20 21  1  0  0  0
 22 23  1  0  0  0
  6  3  1  0  0  0
 24 25  3  0  0  0
  9 10  1  0  0  0
M  END
> <minimizedAffinity>
-8.35391

$$$$
CHEMBL3393341


 25 28  0  0  0  0  0  0  0  0999 V2000
   -2.9542   18.5767   -6.8781 C   0  0  0  0  0  0  0  0  0  0  0  0
   -3.3020   20.7349   -7.6830 C   0  0  0  0  0  0  0  0  0  0  0  0
   -1.4763   20.4020   -6.4781 C   0  0  0  0  0  0  0  0  0  0  0  0
    0.1269   19.5863   -5.1410 C   0  0  0  0  0  0  0  0  0  0  0  0
   -0.7937   18.5714   -5.3376 C   0  0  0  0  0  0  0  0  0  0  0  0
   -1.7924   19.0726   -6.2425 C   0  0  0  0  0  0  0  0  0  0  0  0
   -3.7201   19.4591   -7.5697 N   0  0  0  0  0  0  0  0  0  0  0  0
   -2.1800   21.2887   -7.1951 N   0  0  0  0  0  0  0  0  0  0  0  0
   -0.2983   20.6840   -5.8446 N   0  0  0  0  0  0  0  0  0  0  0  0
    0.1509   21.5877   -5.8748 H   0  0  0  0  0  0  0  0  0  0  0  0
   -6.3128   15.1285   -5.8091 C   0  0  0  0  0  0  0  0  0  0  0  0
   -4.8607   15.5150   -6.0695 C   0  0  0  0  0  0  0  0  0  0  0  0
   -4.1937   14.5189   -7.0313 C   0  0  0  0  0  0  0  0  0  0  0  0
   -2.7526   14.9181   -7.3445 C   0  0  0  0  0  0  0  0  0  0  0  0
   -2.6400   16.3773   -7.7819 C   0  0  0  0  0  0  0  0  0  0  0  0
   -4.7419   16.9508   -6.6071 C   0  0  0  0  0  0  0  0  0  0  0  0
   -3.3258   17.2377   -6.8171 N   0  0  0  0  0  0  0  0  0  0  0  0
   -0.7216   17.2964   -4.6380 C   0  0  0  0  0  0  0  0  0  0  0  0
   -1.8751   16.6722   -4.1485 C   0  0  0  0  0  0  0  0  0  0  0  0
   -1.7834   15.4665   -3.4472 C   0  0  0  0  0  0  0  0  0  0  0  0
   -0.5377   14.8771   -3.2263 C   0  0  0  0  0  0  0  0  0  0  0  0
    0.6197   15.4851   -3.7196 C   0  0  0  0  0  0  0  0  0  0  0  0
    0.5231   16.6830   -4.4356 C   0  0  0  0  0  0  0  0  0  0  0  0
    1.9056   14.9089   -3.4526 C   0  0  0  0  0  0  0  0  0  0  0  0
    2.9437   14.4306   -3.2548 N   0  0  0  0  0  0  0  0  0  0  0  0
 12 11  1  0  0  0
 12 13  1  0  0  0
 13 14  1  0  0  0
 14 15  1  0  0  0
 15 17  1  0  0  0
 16 17  1  0  0  0
 16 12  1  0  0  0
  2  7  2  0  0  0
  3  8  2  0  0  0
  3  9  1  0  0  0
  5 18  1  0  0  0
  5  6  1  0  0  0
 19 20  2  0  0  0
 21 22  2  0  0  0
 22 24  1  0  0  0
 23 18  2  0  0  0
  6  1  2  0  0  0
 17  1  1  0  0  0
  9  4  1  0  0  0
  1  7  1  0  0  0
  2  8  1  0  0  0
  4  5  2  0  0  0
 18 19  1  0  0  0
 20 21  1  0  0  0
 22 23  1  0  0  0
  6  3  1  0  0  0
 24 25  3  0  0  0
  9 10  1  0  0  0
M  END
> <minimizedAffinity>
-8.19815

$$$$
CHEMBL3393341


 25 28  0  0  0  0  0  0  0  0999 V2000
   -0.6266   19.1318   -5.6546 C   0  0  0  0  0  0  0  0  0  0  0  0
    1.1636   20.5625   -5.2361 C   0  0  0  0  0  0  0  0  0  0  0  0
   -0.7818   21.5087   -5.7008 C   0  0  0  0  0  0  0  0  0  0  0  0
   -2.8899   21.9546   -6.3176 C   0  0  0  0  0  0  0  0  0  0  0  0
   -2.7392   20.5788   -6.3500 C   0  0  0  0  0  0  0  0  0  0  0  0
   -1.4060   20.2864   -5.8978 C   0  0  0  0  0  0  0  0  0  0  0  0
    0.6869   19.3083   -5.3594 N   0  0  0  0  0  0  0  0  0  0  0  0
    0.4967   21.7216   -5.3608 N   0  0  0  0  0  0  0  0  0  0  0  0
   -1.6978   22.5004   -5.9153 N   0  0  0  0  0  0  0  0  0  0  0  0
   -1.4899   23.4839   -5.8221 H   0  0  0  0  0  0  0  0  0  0  0  0
   -2.2220   15.2816   -8.2898 C   0  0  0  0  0  0  0  0  0  0  0  0
   -2.1749   16.0438   -6.9697 C   0  0  0  0  0  0  0  0  0  0  0  0
   -1.9119   15.0878   -5.7953 C   0  0  0  0  0  0  0  0  0  0  0  0
   -1.8106   15.8400   -4.4693 C   0  0  0  0  0  0  0  0  0  0  0  0
   -0.8385   17.0158   -4.5454 C   0  0  0  0  0  0  0  0  0  0  0  0
   -1.1265   17.1684   -6.9992 C   0  0  0  0  0  0  0  0  0  0  0  0
   -1.1571   17.8471   -5.7068 N   0  0  0  0  0  0  0  0  0  0  0  0
   -3.7731   19.6851   -6.8524 C   0  0  0  0  0  0  0  0  0  0  0  0
   -4.2208   19.7666   -8.1764 C   0  0  0  0  0  0  0  0  0  0  0  0
   -5.2398   18.9251   -8.6315 C   0  0  0  0  0  0  0  0  0  0  0  0
   -5.8223   17.9981   -7.7660 C   0  0  0  0  0  0  0  0  0  0  0  0
   -5.3764   17.8998   -6.4453 C   0  0  0  0  0  0  0  0  0  0  0  0
   -4.3447   18.7318   -5.9975 C   0  0  0  0  0  0  0  0  0  0  0  0
   -6.0053   16.9832   -5.5392 C   0  0  0  0  0  0  0  0  0  0  0  0
   -6.5279   16.2577   -4.8002 N   0  0  0  0  0  0  0  0  0  0  0  0
 12 11  1  0  0  0
 12 13  1  0  0  0
 13 14  1  0  0  0
 14 15  1  0  0  0
 15 17  1  0  0  0
 16 17  1  0  0  0
 16 12  1  0  0  0
  2  7  2  0  0  0
  3  8  2  0  0  0
  3  9  1  0  0  0
  5 18  1  0  0  0
  5  6  1  0  0  0
 19 20  2  0  0  0
 21 22  2  0  0  0
 22 24  1  0  0  0
 23 18  2  0  0  0
  6  1  2  0  0  0
 17  1  1  0  0  0
  9  4  1  0  0  0
  1  7  1  0  0  0
  2  8  1  0  0  0
  4  5  2  0  0  0
 18 19  1  0  0  0
 20 21  1  0  0  0
 22 23  1  0  0  0
  6  3  1  0  0  0
 24 25  3  0  0  0
  9 10  1  0  0  0
M  END
> <minimizedAffinity>
-8.04785

$$$$
CHEMBL3393341


 25 28  0  0  0  0  0  0  0  0999 V2000
    0.1724   16.3834   -4.0756 C   0  0  0  0  0  0  0  0  0  0  0  0
    1.7927   17.6801   -3.0173 C   0  0  0  0  0  0  0  0  0  0  0  0
    0.4280   18.7286   -4.4081 C   0  0  0  0  0  0  0  0  0  0  0  0
   -1.0915   19.2775   -5.9616 C   0  0  0  0  0  0  0  0  0  0  0  0
   -1.1596   17.9051   -5.7935 C   0  0  0  0  0  0  0  0  0  0  0  0
   -0.2277   17.5572   -4.7552 C   0  0  0  0  0  0  0  0  0  0  0  0
    1.2297   16.4744   -3.2285 N   0  0  0  0  0  0  0  0  0  0  0  0
    1.4404   18.8657   -3.5410 N   0  0  0  0  0  0  0  0  0  0  0  0
   -0.1309   19.7599   -5.1099 N   0  0  0  0  0  0  0  0  0  0  0  0
    0.1656   20.7211   -5.0234 H   0  0  0  0  0  0  0  0  0  0  0  0
    0.2323   11.4579   -3.8531 C   0  0  0  0  0  0  0  0  0  0  0  0
   -0.3934   12.7436   -4.3833 C   0  0  0  0  0  0  0  0  0  0  0  0
   -1.9249   12.6967   -4.2628 C   0  0  0  0  0  0  0  0  0  0  0  0
   -2.5672   13.9974   -4.7423 C   0  0  0  0  0  0  0  0  0  0  0  0
   -1.9290   15.2274   -4.0997 C   0  0  0  0  0  0  0  0  0  0  0  0
    0.1690   13.9855   -3.6719 C   0  0  0  0  0  0  0  0  0  0  0  0
   -0.4744   15.1638   -4.2458 N   0  0  0  0  0  0  0  0  0  0  0  0
   -1.9907   17.0498   -6.6288 C   0  0  0  0  0  0  0  0  0  0  0  0
   -1.4208   16.1284   -7.5155 C   0  0  0  0  0  0  0  0  0  0  0  0
   -2.2334   15.3411   -8.3363 C   0  0  0  0  0  0  0  0  0  0  0  0
   -3.6219   15.4711   -8.2801 C   0  0  0  0  0  0  0  0  0  0  0  0
   -4.2027   16.3794   -7.3911 C   0  0  0  0  0  0  0  0  0  0  0  0
   -3.3874   17.1539   -6.5589 C   0  0  0  0  0  0  0  0  0  0  0  0
   -5.6262   16.5515   -7.3651 C   0  0  0  0  0  0  0  0  0  0  0  0
   -6.7798   16.6697   -7.3384 N   0  0  0  0  0  0  0  0  0  0  0  0
 12 11  1  0  0  0
 12 13  1  0  0  0
 13 14  1  0  0  0
 14 15  1  0  0  0
 15 17  1  0  0  0
 16 17  1  0  0  0
 16 12  1  0  0  0
  2  7  2  0  0  0
  3  8  2  0  0  0
  3  9  1  0  0  0
  5 18  1  0  0  0
  5  6  1  0  0  0
 19 20  2  0  0  0
 21 22  2  0  0  0
 22 24  1  0  0  0
 23 18  2  0  0  0
  6  1  2  0  0  0
 17  1  1  0  0  0
  9  4  1  0  0  0
  1  7  1  0  0  0
  2  8  1  0  0  0
  4  5  2  0  0  0
 18 19  1  0  0  0
 20 21  1  0  0  0
 22 23  1  0  0  0
  6  3  1  0  0  0
 24 25  3  0  0  0
  9 10  1  0  0  0
M  END
> <minimizedAffinity>
-7.85873

$$$$
CHEMBL3393341


 25 28  0  0  0  0  0  0  0  0999 V2000
    0.0414   17.6819   -4.4084 C   0  0  0  0  0  0  0  0  0  0  0  0
    1.8539   18.2228   -3.0486 C   0  0  0  0  0  0  0  0  0  0  0  0
    1.3309   16.0786   -3.2072 C   0  0  0  0  0  0  0  0  0  0  0  0
    0.3458   14.1052   -3.6053 C   0  0  0  0  0  0  0  0  0  0  0  0
   -0.4200   15.0750   -4.2293 C   0  0  0  0  0  0  0  0  0  0  0  0
    0.2416   16.3353   -4.0258 C   0  0  0  0  0  0  0  0  0  0  0  0
    0.8552   18.6207   -3.8607 N   0  0  0  0  0  0  0  0  0  0  0  0
    2.1847   16.9718   -2.6887 N   0  0  0  0  0  0  0  0  0  0  0  0
    1.4051   14.7298   -2.9983 N   0  0  0  0  0  0  0  0  0  0  0  0
    2.1229   14.2884   -2.4421 H   0  0  0  0  0  0  0  0  0  0  0  0
   -3.5846   20.7565   -5.7166 C   0  0  0  0  0  0  0  0  0  0  0  0
   -2.8882   19.4072   -5.8585 C   0  0  0  0  0  0  0  0  0  0  0  0
   -2.7168   19.0334   -7.3394 C   0  0  0  0  0  0  0  0  0  0  0  0
   -1.9752   17.7077   -7.5029 C   0  0  0  0  0  0  0  0  0  0  0  0
   -0.6786   17.6684   -6.6962 C   0  0  0  0  0  0  0  0  0  0  0  0
   -1.5322   19.3879   -5.1336 C   0  0  0  0  0  0  0  0  0  0  0  0
   -0.9443   18.0635   -5.3125 N   0  0  0  0  0  0  0  0  0  0  0  0
   -1.6936   14.7805   -4.8707 C   0  0  0  0  0  0  0  0  0  0  0  0
   -1.8679   13.6227   -5.6381 C   0  0  0  0  0  0  0  0  0  0  0  0
   -3.0861   13.3742   -6.2768 C   0  0  0  0  0  0  0  0  0  0  0  0
   -4.1386   14.2829   -6.1568 C   0  0  0  0  0  0  0  0  0  0  0  0
   -3.9803   15.4366   -5.3845 C   0  0  0  0  0  0  0  0  0  0  0  0
   -2.7654   15.6741   -4.7327 C   0  0  0  0  0  0  0  0  0  0  0  0
   -5.0419   16.3969   -5.2985 C   0  0  0  0  0  0  0  0  0  0  0  0
   -5.9087   17.1661   -5.2478 N   0  0  0  0  0  0  0  0  0  0  0  0
 12 11  1  0  0  0
 12 13  1  0  0  0
 13 14  1  0  0  0
 14 15  1  0  0  0
 15 17  1  0  0  0
 16 17  1  0  0  0
 16 12  1  0  0  0
  2  7  2  0  0  0
  3  8  2  0  0  0
  3  9  1  0  0  0
  5 18  1  0  0  0
  5  6  1  0  0  0
 19 20  2  0  0  0
 21 22  2  0  0  0
 22 24  1  0  0  0
 23 18  2  0  0  0
  6  1  2  0  0  0
 17  1  1  0  0  0
  9  4  1  0  0  0
  1  7  1  0  0  0
  2  8  1  0  0  0
  4  5  2  0  0  0
 18 19  1  0  0  0
 20 21  1  0  0  0
 22 23  1  0  0  0
  6  3  1  0  0  0
 24 25  3  0  0  0
  9 10  1  0  0  0
M  END
> <minimizedAffinity>
-7.78536

$$$$
CHEMBL3393341


 25 28  0  0  0  0  0  0  0  0999 V2000
   -3.5631   19.5499   -6.2269 C   0  0  0  0  0  0  0  0  0  0  0  0
   -2.9234   21.6399   -5.4212 C   0  0  0  0  0  0  0  0  0  0  0  0
   -1.3102   20.1620   -5.7520 C   0  0  0  0  0  0  0  0  0  0  0  0
   -0.0990   18.3161   -6.1382 C   0  0  0  0  0  0  0  0  0  0  0  0
   -1.4273   17.9790   -6.3337 C   0  0  0  0  0  0  0  0  0  0  0  0
   -2.2019   19.1755   -6.1446 C   0  0  0  0  0  0  0  0  0  0  0  0
   -3.8999   20.7984   -5.8130 N   0  0  0  0  0  0  0  0  0  0  0  0
   -1.5992   21.4179   -5.3850 N   0  0  0  0  0  0  0  0  0  0  0  0
   -0.0465   19.6427   -5.7942 N   0  0  0  0  0  0  0  0  0  0  0  0
    0.7831   20.1698   -5.5633 H   0  0  0  0  0  0  0  0  0  0  0  0
   -6.4555   15.6027   -5.6210 C   0  0  0  0  0  0  0  0  0  0  0  0
   -5.7967   16.6219   -6.5445 C   0  0  0  0  0  0  0  0  0  0  0  0
   -6.8046   17.1606   -7.5722 C   0  0  0  0  0  0  0  0  0  0  0  0
   -6.1758   18.2211   -8.4745 C   0  0  0  0  0  0  0  0  0  0  0  0
   -5.4597   19.3082   -7.6751 C   0  0  0  0  0  0  0  0  0  0  0  0
   -5.1580   17.7763   -5.7543 C   0  0  0  0  0  0  0  0  0  0  0  0
   -4.5460   18.6933   -6.7116 N   0  0  0  0  0  0  0  0  0  0  0  0
   -1.8635   16.6139   -6.5914 C   0  0  0  0  0  0  0  0  0  0  0  0
   -2.4918   16.2688   -7.7939 C   0  0  0  0  0  0  0  0  0  0  0  0
   -2.9369   14.9614   -8.0096 C   0  0  0  0  0  0  0  0  0  0  0  0
   -2.7609   13.9895   -7.0236 C   0  0  0  0  0  0  0  0  0  0  0  0
   -2.1253   14.3192   -5.8237 C   0  0  0  0  0  0  0  0  0  0  0  0
   -1.6658   15.6245   -5.6176 C   0  0  0  0  0  0  0  0  0  0  0  0
   -1.9864   13.3365   -4.7885 C   0  0  0  0  0  0  0  0  0  0  0  0
   -1.8573   12.5326   -3.9622 N   0  0  0  0  0  0  0  0  0  0  0  0
 12 11  1  0  0  0
 12 13  1  0  0  0
 13 14  1  0  0  0
 14 15  1  0  0  0
 15 17  1  0  0  0
 16 17  1  0  0  0
 16 12  1  0  0  0
  2  7  2  0  0  0
  3  8  2  0  0  0
  3  9  1  0  0  0
  5 18  1  0  0  0
  5  6  1  0  0  0
 19 20  2  0  0  0
 21 22  2  0  0  0
 22 24  1  0  0  0
 23 18  2  0  0  0
  6  1  2  0  0  0
 17  1  1  0  0  0
  9  4  1  0  0  0
  1  7  1  0  0  0
  2  8  1  0  0  0
  4  5  2  0  0  0
 18 19  1  0  0  0
 20 21  1  0  0  0
 22 23  1  0  0  0
  6  3  1  0  0  0
 24 25  3  0  0  0
  9 10  1  0  0  0
M  END
> <minimizedAffinity>
-7.65311

$$$$
CHEMBL2152300


 24 27  0  0  0  0  0  0  0  0999 V2000
   -3.5556   14.0697   -6.0905 N   0  0  0  0  0  0  0  0  0  0  0  0
   -5.7593   14.2206   -6.4801 N   0  0  0  0  0  0  0  0  0  0  0  0
   -4.9055   17.7713   -7.3588 N   0  0  0  0  0  0  0  0  0  0  0  0
   -2.5970   18.5179   -7.2123 N   0  0  0  0  0  0  0  0  0  0  0  0
   -4.7788   13.4329   -6.0889 C   0  0  0  0  0  0  0  0  0  0  0  0
   -5.1635   15.4251   -6.7490 C   0  0  0  0  0  0  0  0  0  0  0  0
   -5.6856   16.6590   -7.1795 C   0  0  0  0  0  0  0  0  0  0  0  0
   -3.5956   17.5895   -7.1196 C   0  0  0  0  0  0  0  0  0  0  0  0
   -1.3887   17.9267   -6.8976 C   0  0  0  0  0  0  0  0  0  0  0  0
   -1.6100   16.5900   -6.6087 C   0  0  0  0  0  0  0  0  0  0  0  0
   -3.0071   16.4113   -6.7223 C   0  0  0  0  0  0  0  0  0  0  0  0
   -3.8024   15.3244   -6.5222 C   0  0  0  0  0  0  0  0  0  0  0  0
   -2.7449   19.4810   -7.4779 H   0  0  0  0  0  0  0  0  0  0  0  0
   -0.5139   13.5478   -3.9154 N   0  0  0  0  0  0  0  0  0  0  0  0
    0.6040   14.2877   -3.5190 C   0  0  0  0  0  0  0  0  0  0  0  0
   -0.4582   12.0872   -3.8178 C   0  0  0  0  0  0  0  0  0  0  0  0
   -0.9278   11.4279   -5.1122 C   0  0  0  0  0  0  0  0  0  0  0  0
   -2.3046   11.9440   -5.5309 C   0  0  0  0  0  0  0  0  0  0  0  0
   -2.2944   13.4827   -5.6561 C   0  0  0  0  0  0  0  0  0  0  0  0
   -1.8150   14.0991   -4.3248 C   0  0  0  0  0  0  0  0  0  0  0  0
    1.6330   13.7293   -3.1382 O   0  0  0  0  0  0  0  0  0  0  0  0
    0.5014   15.7984   -3.5898 C   0  0  0  0  0  0  0  0  0  0  0  0
    2.6126   17.0709   -2.6868 N   0  0  0  0  0  0  0  0  0  0  0  0
    1.6989   16.4709   -3.0772 C   0  0  0  0  0  0  0  0  0  0  0  0
  1  5  1  0  0  0
  4  9  1  0  0  0
 22 24  1  0  0  0
 22 15  1  0  0  0
 15 14  1  0  0  0
 16 14  1  0  0  0
 16 17  1  0  0  0
 17 18  1  0  0  0
 18 19  1  0  0  0
 19  1  1  0  0  0
 19 20  1  0  0  0
  6  2  1  0  0  0
  7  3  2  0  0  0
  8  4  1  0  0  0
 10 11  1  0  0  0
 11  8  2  0  0  0
 12  1  1  0  0  0
 12  6  2  0  0  0
 20 14  1  0  0  0
 15 21  2  0  0  0
  5  2  2  0  0  0
  6  7  1  0  0  0
  8  3  1  0  0  0
  9 10  2  0  0  0
 11 12  1  0  0  0
 24 23  3  0  0  0
  4 13  1  0  0  0
M  END
> <minimizedAffinity>
-8.76425

$$$$
CHEMBL2152300


 24 27  0  0  0  0  0  0  0  0999 V2000
   -1.2325   14.8358   -4.2816 N   0  0  0  0  0  0  0  0  0  0  0  0
   -0.7453   12.6485   -4.1851 N   0  0  0  0  0  0  0  0  0  0  0  0
    2.5839   13.9020   -2.9793 N   0  0  0  0  0  0  0  0  0  0  0  0
    2.9551   16.2946   -2.7652 N   0  0  0  0  0  0  0  0  0  0  0  0
   -1.6639   13.5424   -4.4883 C   0  0  0  0  0  0  0  0  0  0  0  0
    0.3361   13.3772   -3.7635 C   0  0  0  0  0  0  0  0  0  0  0  0
    1.6195   12.9943   -3.3315 C   0  0  0  0  0  0  0  0  0  0  0  0
    2.2037   15.1891   -3.0499 C   0  0  0  0  0  0  0  0  0  0  0  0
    2.1906   17.4303   -2.9497 C   0  0  0  0  0  0  0  0  0  0  0  0
    0.9196   17.0504   -3.3487 C   0  0  0  0  0  0  0  0  0  0  0  0
    0.9632   15.6407   -3.4366 C   0  0  0  0  0  0  0  0  0  0  0  0
    0.0272   14.7250   -3.8099 C   0  0  0  0  0  0  0  0  0  0  0  0
    3.9181   16.2596   -2.4625 H   0  0  0  0  0  0  0  0  0  0  0  0
   -2.0797   18.1063   -5.9670 N   0  0  0  0  0  0  0  0  0  0  0  0
   -1.5261   19.3865   -6.0611 C   0  0  0  0  0  0  0  0  0  0  0  0
   -3.5048   17.9358   -6.2604 C   0  0  0  0  0  0  0  0  0  0  0  0
   -4.2009   17.1250   -5.1700 C   0  0  0  0  0  0  0  0  0  0  0  0
   -3.4824   15.7990   -4.9193 C   0  0  0  0  0  0  0  0  0  0  0  0
   -1.9966   16.0411   -4.5769 C   0  0  0  0  0  0  0  0  0  0  0  0
   -1.3402   16.8612   -5.7078 C   0  0  0  0  0  0  0  0  0  0  0  0
   -2.2241   20.3618   -6.3392 O   0  0  0  0  0  0  0  0  0  0  0  0
   -0.0402   19.5251   -5.7948 C   0  0  0  0  0  0  0  0  0  0  0  0
    0.6602   21.9385   -5.0356 N   0  0  0  0  0  0  0  0  0  0  0  0
    0.3404   20.8874   -5.4101 C   0  0  0  0  0  0  0  0  0  0  0  0
  1  5  1  0  0  0
  4  9  1  0  0  0
 22 24  1  0  0  0
 22 15  1  0  0  0
 15 14  1  0  0  0
 16 14  1  0  0  0
 16 17  1  0  0  0
 17 18  1  0  0  0
 18 19  1  0  0  0
 19  1  1  0  0  0
 19 20  1  0  0  0
  6  2  1  0  0  0
  7  3  2  0  0  0
  8  4  1  0  0  0
 10 11  1  0  0  0
 11  8  2  0  0  0
 12  1  1  0  0  0
 12  6  2  0  0  0
 20 14  1  0  0  0
 15 21  2  0  0  0
  5  2  2  0  0  0
  6  7  1  0  0  0
  8  3  1  0  0  0
  9 10  2  0  0  0
 11 12  1  0  0  0
 24 23  3  0  0  0
  4 13  1  0  0  0
M  END
> <minimizedAffinity>
-8.47923

$$$$
CHEMBL2152300


 24 27  0  0  0  0  0  0  0  0999 V2000
   -1.1397   13.3314   -4.5486 N   0  0  0  0  0  0  0  0  0  0  0  0
    0.1215   11.5509   -4.0288 N   0  0  0  0  0  0  0  0  0  0  0  0
    2.5446   14.1721   -2.8598 N   0  0  0  0  0  0  0  0  0  0  0  0
    1.9529   16.5214   -3.0573 N   0  0  0  0  0  0  0  0  0  0  0  0
   -1.0195   11.9576   -4.5458 C   0  0  0  0  0  0  0  0  0  0  0  0
    0.7832   12.6986   -3.6777 C   0  0  0  0  0  0  0  0  0  0  0  0
    2.0490   12.9179   -3.1032 C   0  0  0  0  0  0  0  0  0  0  0  0
    1.7186   15.1811   -3.1852 C   0  0  0  0  0  0  0  0  0  0  0  0
    0.8463   17.2252   -3.4916 C   0  0  0  0  0  0  0  0  0  0  0  0
   -0.1239   16.3227   -3.8955 C   0  0  0  0  0  0  0  0  0  0  0  0
    0.4603   15.0474   -3.7249 C   0  0  0  0  0  0  0  0  0  0  0  0
   -0.0036   13.7941   -3.9857 C   0  0  0  0  0  0  0  0  0  0  0  0
    2.8100   16.9121   -2.6928 H   0  0  0  0  0  0  0  0  0  0  0  0
   -2.9363   15.7280   -6.8472 N   0  0  0  0  0  0  0  0  0  0  0  0
   -2.9001   17.0953   -7.1363 C   0  0  0  0  0  0  0  0  0  0  0  0
   -4.1411   14.9701   -7.1935 C   0  0  0  0  0  0  0  0  0  0  0  0
   -4.6127   14.1146   -6.0203 C   0  0  0  0  0  0  0  0  0  0  0  0
   -3.4850   13.2291   -5.4895 C   0  0  0  0  0  0  0  0  0  0  0  0
   -2.2578   14.0829   -5.1042 C   0  0  0  0  0  0  0  0  0  0  0  0
   -1.8209   14.9255   -6.3213 C   0  0  0  0  0  0  0  0  0  0  0  0
   -3.8731   17.6663   -7.6293 O   0  0  0  0  0  0  0  0  0  0  0  0
   -1.6241   17.8443   -6.8069 C   0  0  0  0  0  0  0  0  0  0  0  0
   -1.9441   20.4499   -6.8073 N   0  0  0  0  0  0  0  0  0  0  0  0
   -1.8159   19.2971   -6.7661 C   0  0  0  0  0  0  0  0  0  0  0  0
  1  5  1  0  0  0
  4  9  1  0  0  0
 22 24  1  0  0  0
 22 15  1  0  0  0
 15 14  1  0  0  0
 16 14  1  0  0  0
 16 17  1  0  0  0
 17 18  1  0  0  0
 18 19  1  0  0  0
 19  1  1  0  0  0
 19 20  1  0  0  0
  6  2  1  0  0  0
  7  3  2  0  0  0
  8  4  1  0  0  0
 10 11  1  0  0  0
 11  8  2  0  0  0
 12  1  1  0  0  0
 12  6  2  0  0  0
 20 14  1  0  0  0
 15 21  2  0  0  0
  5  2  2  0  0  0
  6  7  1  0  0  0
  8  3  1  0  0  0
  9 10  2  0  0  0
 11 12  1  0  0  0
 24 23  3  0  0  0
  4 13  1  0  0  0
M  END
> <minimizedAffinity>
-8.44737

$$$$
CHEMBL2152300


 24 27  0  0  0  0  0  0  0  0999 V2000
   -2.4838   16.4873   -5.2992 N   0  0  0  0  0  0  0  0  0  0  0  0
   -0.8071   17.1340   -3.9571 N   0  0  0  0  0  0  0  0  0  0  0  0
   -0.3039   13.4339   -3.5507 N   0  0  0  0  0  0  0  0  0  0  0  0
   -1.7687   11.8912   -4.7266 N   0  0  0  0  0  0  0  0  0  0  0  0
   -1.7928   17.5373   -4.7319 C   0  0  0  0  0  0  0  0  0  0  0  0
   -0.8478   15.7652   -4.0115 C   0  0  0  0  0  0  0  0  0  0  0  0
   -0.0707   14.7739   -3.3839 C   0  0  0  0  0  0  0  0  0  0  0  0
   -1.3154   13.1339   -4.3832 C   0  0  0  0  0  0  0  0  0  0  0  0
   -2.8160   12.0140   -5.6190 C   0  0  0  0  0  0  0  0  0  0  0  0
   -3.0345   13.3596   -5.8653 C   0  0  0  0  0  0  0  0  0  0  0  0
   -2.1021   14.0427   -5.0522 C   0  0  0  0  0  0  0  0  0  0  0  0
   -1.8733   15.3698   -4.8518 C   0  0  0  0  0  0  0  0  0  0  0  0
   -1.3771   11.0301   -4.3727 H   0  0  0  0  0  0  0  0  0  0  0  0
   -6.1438   16.7463   -6.1896 N   0  0  0  0  0  0  0  0  0  0  0  0
   -7.2865   15.9488   -6.0780 C   0  0  0  0  0  0  0  0  0  0  0  0
   -6.1404   17.8323   -7.1728 C   0  0  0  0  0  0  0  0  0  0  0  0
   -4.8705   17.8075   -8.0199 C   0  0  0  0  0  0  0  0  0  0  0  0
   -3.6179   17.7948   -7.1434 C   0  0  0  0  0  0  0  0  0  0  0  0
   -3.6569   16.6092   -6.1553 C   0  0  0  0  0  0  0  0  0  0  0  0
   -4.9556   16.6808   -5.3244 C   0  0  0  0  0  0  0  0  0  0  0  0
   -8.2555   16.1201   -6.8178 O   0  0  0  0  0  0  0  0  0  0  0  0
   -7.2776   14.8612   -5.0221 C   0  0  0  0  0  0  0  0  0  0  0  0
   -7.2291   12.4587   -6.0791 N   0  0  0  0  0  0  0  0  0  0  0  0
   -7.2101   13.5148   -5.5980 C   0  0  0  0  0  0  0  0  0  0  0  0
  1  5  1  0  0  0
  4  9  1  0  0  0
 22 24  1  0  0  0
 22 15  1  0  0  0
 15 14  1  0  0  0
 16 14  1  0  0  0
 16 17  1  0  0  0
 17 18  1  0  0  0
 18 19  1  0  0  0
 19  1  1  0  0  0
 19 20  1  0  0  0
  6  2  1  0  0  0
  7  3  2  0  0  0
  8  4  1  0  0  0
 10 11  1  0  0  0
 11  8  2  0  0  0
 12  1  1  0  0  0
 12  6  2  0  0  0
 20 14  1  0  0  0
 15 21  2  0  0  0
  5  2  2  0  0  0
  6  7  1  0  0  0
  8  3  1  0  0  0
  9 10  2  0  0  0
 11 12  1  0  0  0
 24 23  3  0  0  0
  4 13  1  0  0  0
M  END
> <minimizedAffinity>
-8.34899

$$$$
CHEMBL2152300


 24 27  0  0  0  0  0  0  0  0999 V2000
   -0.5745   15.9377   -4.7055 N   0  0  0  0  0  0  0  0  0  0  0  0
    1.0502   15.1847   -3.3548 N   0  0  0  0  0  0  0  0  0  0  0  0
   -0.6493   11.8790   -3.8967 N   0  0  0  0  0  0  0  0  0  0  0  0
   -2.6172   11.7646   -5.3187 N   0  0  0  0  0  0  0  0  0  0  0  0
    0.5338   16.2435   -3.9439 C   0  0  0  0  0  0  0  0  0  0  0  0
    0.2528   14.1383   -3.7391 C   0  0  0  0  0  0  0  0  0  0  0  0
    0.2804   12.7673   -3.4228 C   0  0  0  0  0  0  0  0  0  0  0  0
   -1.5767   12.4100   -4.7116 C   0  0  0  0  0  0  0  0  0  0  0  0
   -3.3315   12.6642   -6.0861 C   0  0  0  0  0  0  0  0  0  0  0  0
   -2.7340   13.9097   -5.9821 C   0  0  0  0  0  0  0  0  0  0  0  0
   -1.6549   13.7310   -5.0875 C   0  0  0  0  0  0  0  0  0  0  0  0
   -0.7390   14.6036   -4.5840 C   0  0  0  0  0  0  0  0  0  0  0  0
   -2.8097   10.7790   -5.2112 H   0  0  0  0  0  0  0  0  0  0  0  0
   -3.5666   18.1206   -5.4382 N   0  0  0  0  0  0  0  0  0  0  0  0
   -4.9236   17.9410   -5.7221 C   0  0  0  0  0  0  0  0  0  0  0  0
   -2.9332   19.3863   -5.8160 C   0  0  0  0  0  0  0  0  0  0  0  0
   -1.6215   19.1480   -6.5600 C   0  0  0  0  0  0  0  0  0  0  0  0
   -0.6910   18.2308   -5.7661 C   0  0  0  0  0  0  0  0  0  0  0  0
   -1.3959   16.8990   -5.4301 C   0  0  0  0  0  0  0  0  0  0  0  0
   -2.7119   17.1942   -4.6795 C   0  0  0  0  0  0  0  0  0  0  0  0
   -5.5680   18.8049   -6.3174 O   0  0  0  0  0  0  0  0  0  0  0  0
   -5.5623   16.6393   -5.2802 C   0  0  0  0  0  0  0  0  0  0  0  0
   -7.7393   16.0015   -6.6015 N   0  0  0  0  0  0  0  0  0  0  0  0
   -6.7811   16.3240   -6.0314 C   0  0  0  0  0  0  0  0  0  0  0  0
  1  5  1  0  0  0
  4  9  1  0  0  0
 22 24  1  0  0  0
 22 15  1  0  0  0
 15 14  1  0  0  0
 16 14  1  0  0  0
 16 17  1  0  0  0
 17 18  1  0  0  0
 18 19  1  0  0  0
 19  1  1  0  0  0
 19 20  1  0  0  0
  6  2  1  0  0  0
  7  3  2  0  0  0
  8  4  1  0  0  0
 10 11  1  0  0  0
 11  8  2  0  0  0
 12  1  1  0  0  0
 12  6  2  0  0  0
 20 14  1  0  0  0
 15 21  2  0  0  0
  5  2  2  0  0  0
  6  7  1  0  0  0
  8  3  1  0  0  0
  9 10  2  0  0  0
 11 12  1  0  0  0
 24 23  3  0  0  0
  4 13  1  0  0  0
M  END
> <minimizedAffinity>
-8.33999

$$$$
CHEMBL2152300


 24 27  0  0  0  0  0  0  0  0999 V2000
   -1.4185   13.5355   -4.7628 N   0  0  0  0  0  0  0  0  0  0  0  0
   -3.0779   12.0264   -4.7816 N   0  0  0  0  0  0  0  0  0  0  0  0
   -4.8348   14.6489   -6.8176 N   0  0  0  0  0  0  0  0  0  0  0  0
   -3.6977   16.7391   -7.3134 N   0  0  0  0  0  0  0  0  0  0  0  0
   -1.8615   12.2952   -4.3539 C   0  0  0  0  0  0  0  0  0  0  0  0
   -3.4558   13.1312   -5.4993 C   0  0  0  0  0  0  0  0  0  0  0  0
   -4.6459   13.4513   -6.1787 C   0  0  0  0  0  0  0  0  0  0  0  0
   -3.7857   15.4875   -6.7718 C   0  0  0  0  0  0  0  0  0  0  0  0
   -2.4462   17.2646   -7.0564 C   0  0  0  0  0  0  0  0  0  0  0  0
   -1.7092   16.3304   -6.3470 C   0  0  0  0  0  0  0  0  0  0  0  0
   -2.5833   15.2374   -6.1519 C   0  0  0  0  0  0  0  0  0  0  0  0
   -2.4246   14.0535   -5.4984 C   0  0  0  0  0  0  0  0  0  0  0  0
   -4.4455   17.1869   -7.8237 H   0  0  0  0  0  0  0  0  0  0  0  0
    0.9480   16.0189   -3.1856 N   0  0  0  0  0  0  0  0  0  0  0  0
    1.2358   17.3816   -3.3054 C   0  0  0  0  0  0  0  0  0  0  0  0
    1.9559   15.1396   -2.5881 C   0  0  0  0  0  0  0  0  0  0  0  0
    2.1833   13.8965   -3.4447 C   0  0  0  0  0  0  0  0  0  0  0  0
    0.8671   13.1774   -3.7410 C   0  0  0  0  0  0  0  0  0  0  0  0
   -0.1416   14.1395   -4.4044 C   0  0  0  0  0  0  0  0  0  0  0  0
   -0.3370   15.3754   -3.5007 C   0  0  0  0  0  0  0  0  0  0  0  0
    2.3281   17.8330   -2.9605 O   0  0  0  0  0  0  0  0  0  0  0  0
    0.1571   18.2738   -3.8870 C   0  0  0  0  0  0  0  0  0  0  0  0
    1.0421   20.0489   -5.6067 N   0  0  0  0  0  0  0  0  0  0  0  0
    0.6836   19.2382   -4.8574 C   0  0  0  0  0  0  0  0  0  0  0  0
  1  5  1  0  0  0
  4  9  1  0  0  0
 22 24  1  0  0  0
 22 15  1  0  0  0
 15 14  1  0  0  0
 16 14  1  0  0  0
 16 17  1  0  0  0
 17 18  1  0  0  0
 18 19  1  0  0  0
 19  1  1  0  0  0
 19 20  1  0  0  0
  6  2  1  0  0  0
  7  3  2  0  0  0
  8  4  1  0  0  0
 10 11  1  0  0  0
 11  8  2  0  0  0
 12  1  1  0  0  0
 12  6  2  0  0  0
 20 14  1  0  0  0
 15 21  2  0  0  0
  5  2  2  0  0  0
  6  7  1  0  0  0
  8  3  1  0  0  0
  9 10  2  0  0  0
 11 12  1  0  0  0
 24 23  3  0  0  0
  4 13  1  0  0  0
M  END
> <minimizedAffinity>
-8.33120

$$$$
CHEMBL2152300


 24 27  0  0  0  0  0  0  0  0999 V2000
   -3.3984   15.1075   -5.8311 N   0  0  0  0  0  0  0  0  0  0  0  0
   -4.0668   13.0660   -6.4765 N   0  0  0  0  0  0  0  0  0  0  0  0
   -1.0761   11.9522   -4.4956 N   0  0  0  0  0  0  0  0  0  0  0  0
    0.3073   13.6122   -3.3826 N   0  0  0  0  0  0  0  0  0  0  0  0
   -4.3099   14.3587   -6.5454 C   0  0  0  0  0  0  0  0  0  0  0  0
   -2.9510   12.9544   -5.6886 C   0  0  0  0  0  0  0  0  0  0  0  0
   -2.2011   11.8396   -5.2700 C   0  0  0  0  0  0  0  0  0  0  0  0
   -0.7560   13.2081   -4.1401 C   0  0  0  0  0  0  0  0  0  0  0  0
    0.2715   14.9853   -3.2349 C   0  0  0  0  0  0  0  0  0  0  0  0
   -0.8416   15.4746   -3.8987 C   0  0  0  0  0  0  0  0  0  0  0  0
   -1.4512   14.3435   -4.4867 C   0  0  0  0  0  0  0  0  0  0  0  0
   -2.5502   14.2140   -5.2799 C   0  0  0  0  0  0  0  0  0  0  0  0
    0.9967   12.9829   -2.9967 H   0  0  0  0  0  0  0  0  0  0  0  0
   -2.0982   18.6040   -6.4134 N   0  0  0  0  0  0  0  0  0  0  0  0
   -0.9705   19.3518   -6.0622 C   0  0  0  0  0  0  0  0  0  0  0  0
   -3.3133   19.3158   -6.8172 C   0  0  0  0  0  0  0  0  0  0  0  0
   -4.5390   18.7786   -6.0825 C   0  0  0  0  0  0  0  0  0  0  0  0
   -4.6590   17.2623   -6.2366 C   0  0  0  0  0  0  0  0  0  0  0  0
   -3.3677   16.5628   -5.7604 C   0  0  0  0  0  0  0  0  0  0  0  0
   -2.1617   17.1389   -6.5323 C   0  0  0  0  0  0  0  0  0  0  0  0
   -1.0040   20.5824   -6.0460 O   0  0  0  0  0  0  0  0  0  0  0  0
    0.2851   18.5879   -5.6913 C   0  0  0  0  0  0  0  0  0  0  0  0
    1.0494   18.9100   -3.2006 N   0  0  0  0  0  0  0  0  0  0  0  0
    0.6863   18.8024   -4.2977 C   0  0  0  0  0  0  0  0  0  0  0  0
  1  5  1  0  0  0
  4  9  1  0  0  0
 22 24  1  0  0  0
 22 15  1  0  0  0
 15 14  1  0  0  0
 16 14  1  0  0  0
 16 17  1  0  0  0
 17 18  1  0  0  0
 18 19  1  0  0  0
 19  1  1  0  0  0
 19 20  1  0  0  0
  6  2  1  0  0  0
  7  3  2  0  0  0
  8  4  1  0  0  0
 10 11  1  0  0  0
 11  8  2  0  0  0
 12  1  1  0  0  0
 12  6  2  0  0  0
 20 14  1  0  0  0
 15 21  2  0  0  0
  5  2  2  0  0  0
  6  7  1  0  0  0
  8  3  1  0  0  0
  9 10  2  0  0  0
 11 12  1  0  0  0
 24 23  3  0  0  0
  4 13  1  0  0  0
M  END
> <minimizedAffinity>
-8.32119

$$$$
CHEMBL2152300


 24 27  0  0  0  0  0  0  0  0999 V2000
   -3.6619   17.0978   -6.0496 N   0  0  0  0  0  0  0  0  0  0  0  0
   -5.2383   18.6928   -6.0912 N   0  0  0  0  0  0  0  0  0  0  0  0
   -2.2846   20.9911   -5.7709 N   0  0  0  0  0  0  0  0  0  0  0  0
   -0.0456   20.0524   -5.6545 N   0  0  0  0  0  0  0  0  0  0  0  0
   -5.0062   17.3967   -6.1220 C   0  0  0  0  0  0  0  0  0  0  0  0
   -4.0012   19.2744   -5.9926 C   0  0  0  0  0  0  0  0  0  0  0  0
   -3.5974   20.6192   -5.8981 C   0  0  0  0  0  0  0  0  0  0  0  0
   -1.4050   19.9750   -5.7713 C   0  0  0  0  0  0  0  0  0  0  0  0
    0.4943   18.7822   -5.7154 C   0  0  0  0  0  0  0  0  0  0  0  0
   -0.5341   17.8701   -5.8870 C   0  0  0  0  0  0  0  0  0  0  0  0
   -1.7187   18.6405   -5.8852 C   0  0  0  0  0  0  0  0  0  0  0  0
   -3.0305   18.2887   -5.9824 C   0  0  0  0  0  0  0  0  0  0  0  0
    0.4632   20.9182   -5.5468 H   0  0  0  0  0  0  0  0  0  0  0  0
   -1.9523   14.0794   -4.5589 N   0  0  0  0  0  0  0  0  0  0  0  0
   -0.7017   13.7720   -4.0153 C   0  0  0  0  0  0  0  0  0  0  0  0
   -2.7932   12.9834   -5.0463 C   0  0  0  0  0  0  0  0  0  0  0  0
   -3.3333   13.2796   -6.4432 C   0  0  0  0  0  0  0  0  0  0  0  0
   -4.0373   14.6359   -6.4907 C   0  0  0  0  0  0  0  0  0  0  0  0
   -3.0935   15.7566   -6.0043 C   0  0  0  0  0  0  0  0  0  0  0  0
   -2.5776   15.4108   -4.5914 C   0  0  0  0  0  0  0  0  0  0  0  0
   -0.2896   12.6122   -3.9852 O   0  0  0  0  0  0  0  0  0  0  0  0
    0.1275   14.9221   -3.4790 C   0  0  0  0  0  0  0  0  0  0  0  0
    2.6284   14.2270   -3.0867 N   0  0  0  0  0  0  0  0  0  0  0  0
    1.5191   14.5421   -3.2179 C   0  0  0  0  0  0  0  0  0  0  0  0
  1  5  1  0  0  0
  4  9  1  0  0  0
 22 24  1  0  0  0
 22 15  1  0  0  0
 15 14  1  0  0  0
 16 14  1  0  0  0
 16 17  1  0  0  0
 17 18  1  0  0  0
 18 19  1  0  0  0
 19  1  1  0  0  0
 19 20  1  0  0  0
  6  2  1  0  0  0
  7  3  2  0  0  0
  8  4  1  0  0  0
 10 11  1  0  0  0
 11  8  2  0  0  0
 12  1  1  0  0  0
 12  6  2  0  0  0
 20 14  1  0  0  0
 15 21  2  0  0  0
  5  2  2  0  0  0
  6  7  1  0  0  0
  8  3  1  0  0  0
  9 10  2  0  0  0
 11 12  1  0  0  0
 24 23  3  0  0  0
  4 13  1  0  0  0
M  END
> <minimizedAffinity>
-8.05970

$$$$
CHEMBL2152300


 24 27  0  0  0  0  0  0  0  0999 V2000
   -3.6110   13.8479   -5.7941 N   0  0  0  0  0  0  0  0  0  0  0  0
   -3.8216   11.6277   -6.0341 N   0  0  0  0  0  0  0  0  0  0  0  0
   -7.4917   12.4269   -6.0257 N   0  0  0  0  0  0  0  0  0  0  0  0
   -8.2124   14.7372   -5.7991 N   0  0  0  0  0  0  0  0  0  0  0  0
   -2.9758   12.6283   -5.8986 C   0  0  0  0  0  0  0  0  0  0  0  0
   -5.0640   12.2060   -6.0167 C   0  0  0  0  0  0  0  0  0  0  0  0
   -6.3584   11.6600   -6.0982 C   0  0  0  0  0  0  0  0  0  0  0  0
   -7.2755   13.7473   -5.8990 C   0  0  0  0  0  0  0  0  0  0  0  0
   -7.5795   15.9610   -5.6981 C   0  0  0  0  0  0  0  0  0  0  0  0
   -6.2099   15.7582   -5.7461 C   0  0  0  0  0  0  0  0  0  0  0  0
   -6.0443   14.3579   -5.8385 C   0  0  0  0  0  0  0  0  0  0  0  0
   -4.9301   13.5766   -5.8838 C   0  0  0  0  0  0  0  0  0  0  0  0
   -9.2090   14.5736   -5.8061 H   0  0  0  0  0  0  0  0  0  0  0  0
   -0.7759   16.2442   -5.1049 N   0  0  0  0  0  0  0  0  0  0  0  0
    0.1162   16.5061   -4.0610 C   0  0  0  0  0  0  0  0  0  0  0  0
   -1.0143   17.2905   -6.1022 C   0  0  0  0  0  0  0  0  0  0  0  0
   -2.5080   17.4985   -6.3395 C   0  0  0  0  0  0  0  0  0  0  0  0
   -3.2051   16.1814   -6.6809 C   0  0  0  0  0  0  0  0  0  0  0  0
   -2.9528   15.1301   -5.5789 C   0  0  0  0  0  0  0  0  0  0  0  0
   -1.4322   14.9563   -5.3790 C   0  0  0  0  0  0  0  0  0  0  0  0
    0.6588   17.6056   -3.9498 O   0  0  0  0  0  0  0  0  0  0  0  0
    0.3764   15.3896   -3.0693 C   0  0  0  0  0  0  0  0  0  0  0  0
    2.6778   14.1704   -3.3988 N   0  0  0  0  0  0  0  0  0  0  0  0
    1.6766   14.7440   -3.2732 C   0  0  0  0  0  0  0  0  0  0  0  0
  1  5  1  0  0  0
  4  9  1  0  0  0
 22 24  1  0  0  0
 22 15  1  0  0  0
 15 14  1  0  0  0
 16 14  1  0  0  0
 16 17  1  0  0  0
 17 18  1  0  0  0
 18 19  1  0  0  0
 19  1  1  0  0  0
 19 20  1  0  0  0
  6  2  1  0  0  0
  7  3  2  0  0  0
  8  4  1  0  0  0
 10 11  1  0  0  0
 11  8  2  0  0  0
 12  1  1  0  0  0
 12  6  2  0  0  0
 20 14  1  0  0  0
 15 21  2  0  0  0
  5  2  2  0  0  0
  6  7  1  0  0  0
  8  3  1  0  0  0
  9 10  2  0  0  0
 11 12  1  0  0  0
 24 23  3  0  0  0
  4 13  1  0  0  0
M  END
> <minimizedAffinity>
-7.92597

$$$$
CHEMBL2314501


 27 30  0  0  0  0  0  0  0  0999 V2000
   -5.5150   13.2244   -6.1844 N   0  0  0  0  0  0  0  0  0  0  0  0
   -4.0360   11.6175   -5.2232 N   0  0  0  0  0  0  0  0  0  0  0  0
   -1.9517   12.5248   -4.5124 N   0  0  0  0  0  0  0  0  0  0  0  0
   -6.1140   11.0069   -6.0010 N   0  0  0  0  0  0  0  0  0  0  0  0
   -5.1870   11.9859   -5.7864 C   0  0  0  0  0  0  0  0  0  0  0  0
   -3.1983   12.6457   -5.0654 C   0  0  0  0  0  0  0  0  0  0  0  0
   -3.4111   13.9696   -5.4226 C   0  0  0  0  0  0  0  0  0  0  0  0
   -4.6506   14.2773   -6.0476 C   0  0  0  0  0  0  0  0  0  0  0  0
   -2.2200   14.6422   -5.0201 C   0  0  0  0  0  0  0  0  0  0  0  0
   -1.3130   13.7432   -4.4713 C   0  0  0  0  0  0  0  0  0  0  0  0
   -1.5829   11.6440   -4.1885 H   0  0  0  0  0  0  0  0  0  0  0  0
   -6.9369   11.2606   -6.5191 H   0  0  0  0  0  0  0  0  0  0  0  0
   -5.8439   10.0583   -5.8096 H   0  0  0  0  0  0  0  0  0  0  0  0
   -5.0544   15.5055   -6.5583 N   0  0  0  0  0  0  0  0  0  0  0  0
   -4.1735   18.6352   -6.0727 N   0  0  0  0  0  0  0  0  0  0  0  0
   -5.5848   16.5218   -5.6339 C   0  0  0  0  0  0  0  0  0  0  0  0
   -4.4759   17.4963   -5.1767 C   0  0  0  0  0  0  0  0  0  0  0  0
   -4.0733   18.3496   -7.5066 C   0  0  0  0  0  0  0  0  0  0  0  0
   -3.6411   16.9498   -7.9527 C   0  0  0  0  0  0  0  0  0  0  0  0
   -4.8108   15.9697   -7.9092 C   0  0  0  0  0  0  0  0  0  0  0  0
   -3.0032   19.3632   -5.5808 C   0  0  0  0  0  0  0  0  0  0  0  0
    0.0409   13.9759   -3.9405 C   0  0  0  0  0  0  0  0  0  0  0  0
    0.9241   12.9285   -3.6434 C   0  0  0  0  0  0  0  0  0  0  0  0
    2.2032   13.1902   -3.1341 C   0  0  0  0  0  0  0  0  0  0  0  0
    2.6207   14.5007   -2.9156 C   0  0  0  0  0  0  0  0  0  0  0  0
    1.7622   15.5528   -3.2082 C   0  0  0  0  0  0  0  0  0  0  0  0
    0.4874   15.2902   -3.7157 C   0  0  0  0  0  0  0  0  0  0  0  0
  3  6  1  0  0  0
  5  2  2  0  0  0
  5  4  1  0  0  0
  6  7  2  0  0  0
  7  9  1  0  0  0
  8 14  1  0  0  0
  8  1  2  0  0  0
 16 14  1  0  0  0
 16 17  1  0  0  0
 17 15  1  0  0  0
 18 15  1  0  0  0
 18 19  1  0  0  0
 19 20  1  0  0  0
 20 14  1  0  0  0
 21 15  1  0  0  0
 10  3  1  0  0  0
 10 22  1  0  0  0
 23 24  2  0  0  0
 25 26  2  0  0  0
 27 22  2  0  0  0
  5  1  1  0  0  0
  6  2  1  0  0  0
  7  8  1  0  0  0
  9 10  2  0  0  0
 22 23  1  0  0  0
 24 25  1  0  0  0
 26 27  1  0  0  0
  3 11  1  0  0  0
  4 12  1  0  0  0
  4 13  1  0  0  0
M  END
> <minimizedAffinity>
-9.65011

$$$$
CHEMBL2314501


 27 30  0  0  0  0  0  0  0  0999 V2000
   -1.6989   13.1791   -5.0003 N   0  0  0  0  0  0  0  0  0  0  0  0
    0.2811   13.1947   -3.6689 N   0  0  0  0  0  0  0  0  0  0  0  0
    1.1419   15.3739   -3.2412 N   0  0  0  0  0  0  0  0  0  0  0  0
   -0.7545   11.2201   -4.2387 N   0  0  0  0  0  0  0  0  0  0  0  0
   -0.7242   12.5838   -4.2965 C   0  0  0  0  0  0  0  0  0  0  0  0
    0.2223   14.5232   -3.7935 C   0  0  0  0  0  0  0  0  0  0  0  0
   -0.7278   15.2647   -4.4814 C   0  0  0  0  0  0  0  0  0  0  0  0
   -1.7502   14.5389   -5.1519 C   0  0  0  0  0  0  0  0  0  0  0  0
   -0.3341   16.6204   -4.2807 C   0  0  0  0  0  0  0  0  0  0  0  0
    0.8314   16.6840   -3.5260 C   0  0  0  0  0  0  0  0  0  0  0  0
    1.9300   15.0485   -2.7027 H   0  0  0  0  0  0  0  0  0  0  0  0
   -1.4479   10.7531   -4.7963 H   0  0  0  0  0  0  0  0  0  0  0  0
    0.0250   10.7538   -3.8094 H   0  0  0  0  0  0  0  0  0  0  0  0
   -2.7564   15.0538   -5.9609 N   0  0  0  0  0  0  0  0  0  0  0  0
   -5.9841   14.5234   -6.2891 N   0  0  0  0  0  0  0  0  0  0  0  0
   -3.4958   14.1394   -6.8473 C   0  0  0  0  0  0  0  0  0  0  0  0
   -4.7986   13.6437   -6.1799 C   0  0  0  0  0  0  0  0  0  0  0  0
   -5.7777   15.9554   -6.0558 C   0  0  0  0  0  0  0  0  0  0  0  0
   -4.6376   16.3971   -5.1337 C   0  0  0  0  0  0  0  0  0  0  0  0
   -3.2994   16.3941   -5.8684 C   0  0  0  0  0  0  0  0  0  0  0  0
   -7.0789   13.9928   -5.4758 C   0  0  0  0  0  0  0  0  0  0  0  0
    1.6081   17.8563   -3.0885 C   0  0  0  0  0  0  0  0  0  0  0  0
    1.1323   19.1682   -3.2222 C   0  0  0  0  0  0  0  0  0  0  0  0
    1.9040   20.2587   -2.7988 C   0  0  0  0  0  0  0  0  0  0  0  0
    3.1607   20.0564   -2.2337 C   0  0  0  0  0  0  0  0  0  0  0  0
    3.6480   18.7638   -2.0879 C   0  0  0  0  0  0  0  0  0  0  0  0
    2.8777   17.6778   -2.5108 C   0  0  0  0  0  0  0  0  0  0  0  0
  3  6  1  0  0  0
  5  2  2  0  0  0
  5  4  1  0  0  0
  6  7  2  0  0  0
  7  9  1  0  0  0
  8 14  1  0  0  0
  8  1  2  0  0  0
 16 14  1  0  0  0
 16 17  1  0  0  0
 17 15  1  0  0  0
 18 15  1  0  0  0
 18 19  1  0  0  0
 19 20  1  0  0  0
 20 14  1  0  0  0
 21 15  1  0  0  0
 10  3  1  0  0  0
 10 22  1  0  0  0
 23 24  2  0  0  0
 25 26  2  0  0  0
 27 22  2  0  0  0
  5  1  1  0  0  0
  6  2  1  0  0  0
  7  8  1  0  0  0
  9 10  2  0  0  0
 22 23  1  0  0  0
 24 25  1  0  0  0
 26 27  1  0  0  0
  3 11  1  0  0  0
  4 12  1  0  0  0
  4 13  1  0  0  0
M  END
> <minimizedAffinity>
-9.32003

$$$$
CHEMBL2314501


 27 30  0  0  0  0  0  0  0  0999 V2000
   -5.2102   18.3701   -6.0819 N   0  0  0  0  0  0  0  0  0  0  0  0
   -4.7857   16.1630   -5.2808 N   0  0  0  0  0  0  0  0  0  0  0  0
   -2.5487   15.8165   -4.5401 N   0  0  0  0  0  0  0  0  0  0  0  0
   -6.8638   16.7654   -6.0647 N   0  0  0  0  0  0  0  0  0  0  0  0
   -5.5720   17.1115   -5.7905 C   0  0  0  0  0  0  0  0  0  0  0  0
   -3.5439   16.6015   -5.0576 C   0  0  0  0  0  0  0  0  0  0  0  0
   -3.0406   17.8709   -5.3038 C   0  0  0  0  0  0  0  0  0  0  0  0
   -3.9325   18.8177   -5.8782 C   0  0  0  0  0  0  0  0  0  0  0  0
   -1.6833   17.8050   -4.8719 C   0  0  0  0  0  0  0  0  0  0  0  0
   -1.3777   16.5286   -4.4143 C   0  0  0  0  0  0  0  0  0  0  0  0
   -2.6905   14.8488   -4.2947 H   0  0  0  0  0  0  0  0  0  0  0  0
   -7.4281   17.4443   -6.5448 H   0  0  0  0  0  0  0  0  0  0  0  0
   -7.1219   15.8007   -5.9548 H   0  0  0  0  0  0  0  0  0  0  0  0
   -3.6383   20.1151   -6.2813 N   0  0  0  0  0  0  0  0  0  0  0  0
   -4.9018   22.2195   -8.4681 N   0  0  0  0  0  0  0  0  0  0  0  0
   -3.2909   20.3615   -7.6910 C   0  0  0  0  0  0  0  0  0  0  0  0
   -4.5321   20.7867   -8.5077 C   0  0  0  0  0  0  0  0  0  0  0  0
   -4.8720   22.8817   -7.1610 C   0  0  0  0  0  0  0  0  0  0  0  0
   -5.1104   22.0430   -5.9022 C   0  0  0  0  0  0  0  0  0  0  0  0
   -3.8419   21.3055   -5.4805 C   0  0  0  0  0  0  0  0  0  0  0  0
   -6.1780   22.4273   -9.1533 C   0  0  0  0  0  0  0  0  0  0  0  0
   -0.1088   15.9930   -3.8928 C   0  0  0  0  0  0  0  0  0  0  0  0
    0.9661   16.8178   -3.5330 C   0  0  0  0  0  0  0  0  0  0  0  0
    2.1603   16.2697   -3.0455 C   0  0  0  0  0  0  0  0  0  0  0  0
    2.2988   14.8908   -2.9078 C   0  0  0  0  0  0  0  0  0  0  0  0
    1.2435   14.0566   -3.2542 C   0  0  0  0  0  0  0  0  0  0  0  0
    0.0539   14.6046   -3.7402 C   0  0  0  0  0  0  0  0  0  0  0  0
  3  6  1  0  0  0
  5  2  2  0  0  0
  5  4  1  0  0  0
  6  7  2  0  0  0
  7  9  1  0  0  0
  8 14  1  0  0  0
  8  1  2  0  0  0
 16 14  1  0  0  0
 16 17  1  0  0  0
 17 15  1  0  0  0
 18 15  1  0  0  0
 18 19  1  0  0  0
 19 20  1  0  0  0
 20 14  1  0  0  0
 21 15  1  0  0  0
 10  3  1  0  0  0
 10 22  1  0  0  0
 23 24  2  0  0  0
 25 26  2  0  0  0
 27 22  2  0  0  0
  5  1  1  0  0  0
  6  2  1  0  0  0
  7  8  1  0  0  0
  9 10  2  0  0  0
 22 23  1  0  0  0
 24 25  1  0  0  0
 26 27  1  0  0  0
  3 11  1  0  0  0
  4 12  1  0  0  0
  4 13  1  0  0  0
M  END
> <minimizedAffinity>
-9.18487

$$$$
CHEMBL2314501


 27 30  0  0  0  0  0  0  0  0999 V2000
   -2.8890   19.8526   -6.6467 N   0  0  0  0  0  0  0  0  0  0  0  0
   -0.7177   20.0945   -5.6875 N   0  0  0  0  0  0  0  0  0  0  0  0
    0.1767   18.0748   -4.7968 N   0  0  0  0  0  0  0  0  0  0  0  0
   -1.8172   21.8922   -6.6125 N   0  0  0  0  0  0  0  0  0  0  0  0
   -1.8009   20.5611   -6.3093 C   0  0  0  0  0  0  0  0  0  0  0  0
   -0.8062   18.7869   -5.4301 C   0  0  0  0  0  0  0  0  0  0  0  0
   -1.8625   17.9380   -5.7287 C   0  0  0  0  0  0  0  0  0  0  0  0
   -2.9954   18.5173   -6.3633 C   0  0  0  0  0  0  0  0  0  0  0  0
   -1.4361   16.6611   -5.2588 C   0  0  0  0  0  0  0  0  0  0  0  0
   -0.1807   16.7519   -4.6691 C   0  0  0  0  0  0  0  0  0  0  0  0
    1.0362   18.4963   -4.4797 H   0  0  0  0  0  0  0  0  0  0  0  0
   -2.6721   22.2669   -6.9847 H   0  0  0  0  0  0  0  0  0  0  0  0
   -1.0603   22.4578   -6.2712 H   0  0  0  0  0  0  0  0  0  0  0  0
   -4.1925   17.8892   -6.6868 N   0  0  0  0  0  0  0  0  0  0  0  0
   -5.2294   14.7722   -6.8136 N   0  0  0  0  0  0  0  0  0  0  0  0
   -4.2136   16.9271   -7.8014 C   0  0  0  0  0  0  0  0  0  0  0  0
   -4.0216   15.4794   -7.2955 C   0  0  0  0  0  0  0  0  0  0  0  0
   -6.1422   15.5225   -5.9467 C   0  0  0  0  0  0  0  0  0  0  0  0
   -5.5774   16.6522   -5.0807 C   0  0  0  0  0  0  0  0  0  0  0  0
   -5.4021   17.9347   -5.8901 C   0  0  0  0  0  0  0  0  0  0  0  0
   -4.8558   13.4856   -6.2249 C   0  0  0  0  0  0  0  0  0  0  0  0
    0.6414   15.7063   -4.0367 C   0  0  0  0  0  0  0  0  0  0  0  0
    1.9556   15.9381   -3.6072 C   0  0  0  0  0  0  0  0  0  0  0  0
    2.7084   14.9153   -3.0144 C   0  0  0  0  0  0  0  0  0  0  0  0
    2.1604   13.6469   -2.8396 C   0  0  0  0  0  0  0  0  0  0  0  0
    0.8581   13.3985   -3.2540 C   0  0  0  0  0  0  0  0  0  0  0  0
    0.1091   14.4190   -3.8448 C   0  0  0  0  0  0  0  0  0  0  0  0
  3  6  1  0  0  0
  5  2  2  0  0  0
  5  4  1  0  0  0
  6  7  2  0  0  0
  7  9  1  0  0  0
  8 14  1  0  0  0
  8  1  2  0  0  0
 16 14  1  0  0  0
 16 17  1  0  0  0
 17 15  1  0  0  0
 18 15  1  0  0  0
 18 19  1  0  0  0
 19 20  1  0  0  0
 20 14  1  0  0  0
 21 15  1  0  0  0
 10  3  1  0  0  0
 10 22  1  0  0  0
 23 24  2  0  0  0
 25 26  2  0  0  0
 27 22  2  0  0  0
  5  1  1  0  0  0
  6  2  1  0  0  0
  7  8  1  0  0  0
  9 10  2  0  0  0
 22 23  1  0  0  0
 24 25  1  0  0  0
 26 27  1  0  0  0
  3 11  1  0  0  0
  4 12  1  0  0  0
  4 13  1  0  0  0
M  END
> <minimizedAffinity>
-9.17396

$$$$
CHEMBL2314501


 27 30  0  0  0  0  0  0  0  0999 V2000
   -5.1021   18.4351   -6.1175 N   0  0  0  0  0  0  0  0  0  0  0  0
   -4.7499   16.2610   -5.1997 N   0  0  0  0  0  0  0  0  0  0  0  0
   -2.5167   15.8692   -4.4703 N   0  0  0  0  0  0  0  0  0  0  0  0
   -6.8153   16.8995   -5.9887 N   0  0  0  0  0  0  0  0  0  0  0  0
   -5.5071   17.2097   -5.7513 C   0  0  0  0  0  0  0  0  0  0  0  0
   -3.4890   16.6624   -5.0178 C   0  0  0  0  0  0  0  0  0  0  0  0
   -2.9414   17.8957   -5.3413 C   0  0  0  0  0  0  0  0  0  0  0  0
   -3.8052   18.8432   -5.9559 C   0  0  0  0  0  0  0  0  0  0  0  0
   -1.5812   17.8010   -4.9242 C   0  0  0  0  0  0  0  0  0  0  0  0
   -1.3176   16.5410   -4.3999 C   0  0  0  0  0  0  0  0  0  0  0  0
   -2.6916   14.9227   -4.1693 H   0  0  0  0  0  0  0  0  0  0  0  0
   -7.3605   17.5723   -6.4986 H   0  0  0  0  0  0  0  0  0  0  0  0
   -7.1082   15.9532   -5.8217 H   0  0  0  0  0  0  0  0  0  0  0  0
   -3.4679   20.1038   -6.4349 N   0  0  0  0  0  0  0  0  0  0  0  0
   -2.8283   23.0232   -5.0657 N   0  0  0  0  0  0  0  0  0  0  0  0
   -4.3547   21.2405   -6.1349 C   0  0  0  0  0  0  0  0  0  0  0  0
   -3.8828   22.0019   -4.8755 C   0  0  0  0  0  0  0  0  0  0  0  0
   -1.6974   22.6644   -5.9260 C   0  0  0  0  0  0  0  0  0  0  0  0
   -1.3006   21.1903   -6.0481 C   0  0  0  0  0  0  0  0  0  0  0  0
   -2.1992   20.4560   -7.0400 C   0  0  0  0  0  0  0  0  0  0  0  0
   -2.3834   23.5325   -3.7680 C   0  0  0  0  0  0  0  0  0  0  0  0
   -0.0623   15.9860   -3.8660 C   0  0  0  0  0  0  0  0  0  0  0  0
    1.0108   16.7959   -3.4684 C   0  0  0  0  0  0  0  0  0  0  0  0
    2.1919   16.2297   -2.9702 C   0  0  0  0  0  0  0  0  0  0  0  0
    2.3193   14.8473   -2.8593 C   0  0  0  0  0  0  0  0  0  0  0  0
    1.2655   14.0277   -3.2433 C   0  0  0  0  0  0  0  0  0  0  0  0
    0.0889   14.5937   -3.7400 C   0  0  0  0  0  0  0  0  0  0  0  0
  3  6  1  0  0  0
  5  2  2  0  0  0
  5  4  1  0  0  0
  6  7  2  0  0  0
  7  9  1  0  0  0
  8 14  1  0  0  0
  8  1  2  0  0  0
 16 14  1  0  0  0
 16 17  1  0  0  0
 17 15  1  0  0  0
 18 15  1  0  0  0
 18 19  1  0  0  0
 19 20  1  0  0  0
 20 14  1  0  0  0
 21 15  1  0  0  0
 10  3  1  0  0  0
 10 22  1  0  0  0
 23 24  2  0  0  0
 25 26  2  0  0  0
 27 22  2  0  0  0
  5  1  1  0  0  0
  6  2  1  0  0  0
  7  8  1  0  0  0
  9 10  2  0  0  0
 22 23  1  0  0  0
 24 25  1  0  0  0
 26 27  1  0  0  0
  3 11  1  0  0  0
  4 12  1  0  0  0
  4 13  1  0  0  0
M  END
> <minimizedAffinity>
-8.77644

$$$$
CHEMBL2314501


 27 30  0  0  0  0  0  0  0  0999 V2000
    0.3873   22.1958   -4.9191 N   0  0  0  0  0  0  0  0  0  0  0  0
   -0.8364   20.3356   -5.7765 N   0  0  0  0  0  0  0  0  0  0  0  0
   -0.1083   18.2290   -4.9369 N   0  0  0  0  0  0  0  0  0  0  0  0
   -1.3282   22.4867   -6.4298 N   0  0  0  0  0  0  0  0  0  0  0  0
   -0.5703   21.6381   -5.6753 C   0  0  0  0  0  0  0  0  0  0  0  0
   -0.0355   19.5944   -5.0064 C   0  0  0  0  0  0  0  0  0  0  0  0
    0.9834   20.0386   -4.1758 C   0  0  0  0  0  0  0  0  0  0  0  0
    1.2271   21.4391   -4.1467 C   0  0  0  0  0  0  0  0  0  0  0  0
    1.4991   18.8505   -3.5793 C   0  0  0  0  0  0  0  0  0  0  0  0
    0.8319   17.7315   -4.0636 C   0  0  0  0  0  0  0  0  0  0  0  0
   -0.7754   17.6916   -5.4689 H   0  0  0  0  0  0  0  0  0  0  0  0
   -1.0622   23.4558   -6.4363 H   0  0  0  0  0  0  0  0  0  0  0  0
   -1.9752   22.0799   -7.0819 H   0  0  0  0  0  0  0  0  0  0  0  0
    2.2341   22.1047   -3.4575 N   0  0  0  0  0  0  0  0  0  0  0  0
    3.6225   21.8024   -0.4930 N   0  0  0  0  0  0  0  0  0  0  0  0
    1.9119   22.7507   -2.1740 C   0  0  0  0  0  0  0  0  0  0  0  0
    2.2257   21.8174   -0.9828 C   0  0  0  0  0  0  0  0  0  0  0  0
    4.6842   21.7532   -1.5021 C   0  0  0  0  0  0  0  0  0  0  0  0
    4.3894   21.0960   -2.8535 C   0  0  0  0  0  0  0  0  0  0  0  0
    3.6453   22.0518   -3.7826 C   0  0  0  0  0  0  0  0  0  0  0  0
    3.7875   20.7595    0.5203 C   0  0  0  0  0  0  0  0  0  0  0  0
    1.0313   16.3063   -3.7506 C   0  0  0  0  0  0  0  0  0  0  0  0
    2.2865   15.7755   -3.4215 C   0  0  0  0  0  0  0  0  0  0  0  0
    2.4370   14.4119   -3.1351 C   0  0  0  0  0  0  0  0  0  0  0  0
    1.3372   13.5582   -3.1707 C   0  0  0  0  0  0  0  0  0  0  0  0
    0.0841   14.0656   -3.4898 C   0  0  0  0  0  0  0  0  0  0  0  0
   -0.0642   15.4251   -3.7752 C   0  0  0  0  0  0  0  0  0  0  0  0
  3  6  1  0  0  0
  5  2  2  0  0  0
  5  4  1  0  0  0
  6  7  2  0  0  0
  7  9  1  0  0  0
  8 14  1  0  0  0
  8  1  2  0  0  0
 16 14  1  0  0  0
 16 17  1  0  0  0
 17 15  1  0  0  0
 18 15  1  0  0  0
 18 19  1  0  0  0
 19 20  1  0  0  0
 20 14  1  0  0  0
 21 15  1  0  0  0
 10  3  1  0  0  0
 10 22  1  0  0  0
 23 24  2  0  0  0
 25 26  2  0  0  0
 27 22  2  0  0  0
  5  1  1  0  0  0
  6  2  1  0  0  0
  7  8  1  0  0  0
  9 10  2  0  0  0
 22 23  1  0  0  0
 24 25  1  0  0  0
 26 27  1  0  0  0
  3 11  1  0  0  0
  4 12  1  0  0  0
  4 13  1  0  0  0
M  END
> <minimizedAffinity>
-8.67152

$$$$
CHEMBL2314501


 27 30  0  0  0  0  0  0  0  0999 V2000
    1.1051   21.3328   -4.0572 N   0  0  0  0  0  0  0  0  0  0  0  0
   -0.0822   19.7373   -5.3755 N   0  0  0  0  0  0  0  0  0  0  0  0
    0.3164   17.4749   -4.7468 N   0  0  0  0  0  0  0  0  0  0  0  0
   -0.2796   21.9949   -5.7759 N   0  0  0  0  0  0  0  0  0  0  0  0
    0.2608   20.9809   -5.0386 C   0  0  0  0  0  0  0  0  0  0  0  0
    0.5058   18.8228   -4.5997 C   0  0  0  0  0  0  0  0  0  0  0  0
    1.3879   19.0466   -3.5522 C   0  0  0  0  0  0  0  0  0  0  0  0
    1.7296   20.3987   -3.2749 C   0  0  0  0  0  0  0  0  0  0  0  0
    1.6933   17.7436   -3.0601 C   0  0  0  0  0  0  0  0  0  0  0  0
    1.0410   16.7726   -3.8109 C   0  0  0  0  0  0  0  0  0  0  0  0
   -0.2822   17.0836   -5.4578 H   0  0  0  0  0  0  0  0  0  0  0  0
    0.0571   22.9240   -5.5935 H   0  0  0  0  0  0  0  0  0  0  0  0
   -0.8267   21.7462   -6.5811 H   0  0  0  0  0  0  0  0  0  0  0  0
    2.6428   20.8608   -2.3343 N   0  0  0  0  0  0  0  0  0  0  0  0
    5.2841   22.8163   -2.4146 N   0  0  0  0  0  0  0  0  0  0  0  0
    4.0698   20.5431   -2.5110 C   0  0  0  0  0  0  0  0  0  0  0  0
    4.8112   21.6844   -3.2432 C   0  0  0  0  0  0  0  0  0  0  0  0
    4.3562   23.3427   -1.4098 C   0  0  0  0  0  0  0  0  0  0  0  0
    2.8501   23.2106   -1.6537 C   0  0  0  0  0  0  0  0  0  0  0  0
    2.3504   21.8160   -1.2846 C   0  0  0  0  0  0  0  0  0  0  0  0
    5.8162   23.8769   -3.2710 C   0  0  0  0  0  0  0  0  0  0  0  0
    1.0697   15.3057   -3.6836 C   0  0  0  0  0  0  0  0  0  0  0  0
    2.2456   14.5967   -3.4010 C   0  0  0  0  0  0  0  0  0  0  0  0
    2.2335   13.1994   -3.2930 C   0  0  0  0  0  0  0  0  0  0  0  0
    1.0477   12.4892   -3.4635 C   0  0  0  0  0  0  0  0  0  0  0  0
   -0.1291   13.1737   -3.7393 C   0  0  0  0  0  0  0  0  0  0  0  0
   -0.1153   14.5665   -3.8467 C   0  0  0  0  0  0  0  0  0  0  0  0
  3  6  1  0  0  0
  5  2  2  0  0  0
  5  4  1  0  0  0
  6  7  2  0  0  0
  7  9  1  0  0  0
  8 14  1  0  0  0
  8  1  2  0  0  0
 16 14  1  0  0  0
 16 17  1  0  0  0
 17 15  1  0  0  0
 18 15  1  0  0  0
 18 19  1  0  0  0
 19 20  1  0  0  0
 20 14  1  0  0  0
 21 15  1  0  0  0
 10  3  1  0  0  0
 10 22  1  0  0  0
 23 24  2  0  0  0
 25 26  2  0  0  0
 27 22  2  0  0  0
  5  1  1  0  0  0
  6  2  1  0  0  0
  7  8  1  0  0  0
  9 10  2  0  0  0
 22 23  1  0  0  0
 24 25  1  0  0  0
 26 27  1  0  0  0
  3 11  1  0  0  0
  4 12  1  0  0  0
  4 13  1  0  0  0
M  END
> <minimizedAffinity>
-8.57238

$$$$
CHEMBL2314501


 27 30  0  0  0  0  0  0  0  0999 V2000
   -5.8921   18.1068   -7.1831 N   0  0  0  0  0  0  0  0  0  0  0  0
   -5.8704   15.7505   -6.8079 N   0  0  0  0  0  0  0  0  0  0  0  0
   -3.8887   14.9576   -5.7511 N   0  0  0  0  0  0  0  0  0  0  0  0
   -7.6630   16.7778   -7.8215 N   0  0  0  0  0  0  0  0  0  0  0  0
   -6.4314   16.8798   -7.2414 C   0  0  0  0  0  0  0  0  0  0  0  0
   -4.6674   15.9589   -6.2663 C   0  0  0  0  0  0  0  0  0  0  0  0
   -3.9991   17.1679   -6.1358 C   0  0  0  0  0  0  0  0  0  0  0  0
   -4.6490   18.3227   -6.6514 C   0  0  0  0  0  0  0  0  0  0  0  0
   -2.7785   16.8304   -5.4804 C   0  0  0  0  0  0  0  0  0  0  0  0
   -2.7064   15.4603   -5.2575 C   0  0  0  0  0  0  0  0  0  0  0  0
   -4.1754   13.9908   -5.7499 H   0  0  0  0  0  0  0  0  0  0  0  0
   -8.0414   17.6082   -8.2425 H   0  0  0  0  0  0  0  0  0  0  0  0
   -8.0334   15.8560   -7.9714 H   0  0  0  0  0  0  0  0  0  0  0  0
   -4.1478   19.6181   -6.7046 N   0  0  0  0  0  0  0  0  0  0  0  0
   -4.9509   22.3635   -8.3247 N   0  0  0  0  0  0  0  0  0  0  0  0
   -3.6751   20.1466   -7.9953 C   0  0  0  0  0  0  0  0  0  0  0  0
   -4.7860   20.9450   -8.7143 C   0  0  0  0  0  0  0  0  0  0  0  0
   -4.9155   22.6719   -6.8924 C   0  0  0  0  0  0  0  0  0  0  0  0
   -5.3543   21.5967   -5.8940 C   0  0  0  0  0  0  0  0  0  0  0  0
   -4.2342   20.5922   -5.6353 C   0  0  0  0  0  0  0  0  0  0  0  0
   -6.1360   22.9270   -8.9724 C   0  0  0  0  0  0  0  0  0  0  0  0
   -1.6378   14.6619   -4.6336 C   0  0  0  0  0  0  0  0  0  0  0  0
   -0.5158   15.2460   -4.0290 C   0  0  0  0  0  0  0  0  0  0  0  0
    0.4834   14.4518   -3.4503 C   0  0  0  0  0  0  0  0  0  0  0  0
    0.3770   13.0632   -3.4645 C   0  0  0  0  0  0  0  0  0  0  0  0
   -0.7294   12.4652   -4.0543 C   0  0  0  0  0  0  0  0  0  0  0  0
   -1.7244   13.2584   -4.6309 C   0  0  0  0  0  0  0  0  0  0  0  0
  3  6  1  0  0  0
  5  2  2  0  0  0
  5  4  1  0  0  0
  6  7  2  0  0  0
  7  9  1  0  0  0
  8 14  1  0  0  0
  8  1  2  0  0  0
 16 14  1  0  0  0
 16 17  1  0  0  0
 17 15  1  0  0  0
 18 15  1  0  0  0
 18 19  1  0  0  0
 19 20  1  0  0  0
 20 14  1  0  0  0
 21 15  1  0  0  0
 10  3  1  0  0  0
 10 22  1  0  0  0
 23 24  2  0  0  0
 25 26  2  0  0  0
 27 22  2  0  0  0
  5  1  1  0  0  0
  6  2  1  0  0  0
  7  8  1  0  0  0
  9 10  2  0  0  0
 22 23  1  0  0  0
 24 25  1  0  0  0
 26 27  1  0  0  0
  3 11  1  0  0  0
  4 12  1  0  0  0
  4 13  1  0  0  0
M  END
> <minimizedAffinity>
-8.56585

$$$$
CHEMBL2314501


 27 30  0  0  0  0  0  0  0  0999 V2000
   -4.1577   18.8213   -7.9974 N   0  0  0  0  0  0  0  0  0  0  0  0
   -2.6989   20.4410   -7.0268 N   0  0  0  0  0  0  0  0  0  0  0  0
   -1.0281   19.5104   -5.6073 N   0  0  0  0  0  0  0  0  0  0  0  0
   -4.4088   21.0701   -8.4327 N   0  0  0  0  0  0  0  0  0  0  0  0
   -3.7221   20.0746   -7.7993 C   0  0  0  0  0  0  0  0  0  0  0  0
   -2.1020   19.3953   -6.4487 C   0  0  0  0  0  0  0  0  0  0  0  0
   -2.4420   18.0557   -6.5719 C   0  0  0  0  0  0  0  0  0  0  0  0
   -3.5650   17.7481   -7.3880 C   0  0  0  0  0  0  0  0  0  0  0  0
   -1.4816   17.3702   -5.7713 C   0  0  0  0  0  0  0  0  0  0  0  0
   -0.6178   18.2739   -5.1637 C   0  0  0  0  0  0  0  0  0  0  0  0
   -0.6176   20.3996   -5.3668 H   0  0  0  0  0  0  0  0  0  0  0  0
   -5.2419   20.8077   -8.9296 H   0  0  0  0  0  0  0  0  0  0  0  0
   -4.1655   22.0193   -8.2107 H   0  0  0  0  0  0  0  0  0  0  0  0
   -4.1362   16.4984   -7.5984 N   0  0  0  0  0  0  0  0  0  0  0  0
   -3.4053   13.4208   -6.7033 N   0  0  0  0  0  0  0  0  0  0  0  0
   -3.3462   15.4599   -8.2811 C   0  0  0  0  0  0  0  0  0  0  0  0
   -2.6247   14.5463   -7.2647 C   0  0  0  0  0  0  0  0  0  0  0  0
   -4.7798   13.7052   -6.2816 C   0  0  0  0  0  0  0  0  0  0  0  0
   -5.1344   15.1236   -5.8261 C   0  0  0  0  0  0  0  0  0  0  0  0
   -5.3839   16.0417   -7.0200 C   0  0  0  0  0  0  0  0  0  0  0  0
   -2.6397   12.7567   -5.6477 C   0  0  0  0  0  0  0  0  0  0  0  0
    0.5079   18.0305   -4.2459 C   0  0  0  0  0  0  0  0  0  0  0  0
    1.1663   19.0669   -3.5694 C   0  0  0  0  0  0  0  0  0  0  0  0
    2.2379   18.7955   -2.7079 C   0  0  0  0  0  0  0  0  0  0  0  0
    2.6670   17.4859   -2.5071 C   0  0  0  0  0  0  0  0  0  0  0  0
    2.0246   16.4443   -3.1643 C   0  0  0  0  0  0  0  0  0  0  0  0
    0.9567   16.7166   -4.0229 C   0  0  0  0  0  0  0  0  0  0  0  0
  3  6  1  0  0  0
  5  2  2  0  0  0
  5  4  1  0  0  0
  6  7  2  0  0  0
  7  9  1  0  0  0
  8 14  1  0  0  0
  8  1  2  0  0  0
 16 14  1  0  0  0
 16 17  1  0  0  0
 17 15  1  0  0  0
 18 15  1  0  0  0
 18 19  1  0  0  0
 19 20  1  0  0  0
 20 14  1  0  0  0
 21 15  1  0  0  0
 10  3  1  0  0  0
 10 22  1  0  0  0
 23 24  2  0  0  0
 25 26  2  0  0  0
 27 22  2  0  0  0
  5  1  1  0  0  0
  6  2  1  0  0  0
  7  8  1  0  0  0
  9 10  2  0  0  0
 22 23  1  0  0  0
 24 25  1  0  0  0
 26 27  1  0  0  0
  3 11  1  0  0  0
  4 12  1  0  0  0
  4 13  1  0  0  0
M  END
> <minimizedAffinity>
-8.51712

$$$$
CHEMBL3393342


 25 28  0  0  0  0  0  0  0  0999 V2000
   -2.1631   18.6512   -6.6002 C   0  0  0  0  0  0  0  0  0  0  0  0
   -1.0369   19.1519   -5.8623 C   0  0  0  0  0  0  0  0  0  0  0  0
   -0.9913   20.5182   -6.0956 C   0  0  0  0  0  0  0  0  0  0  0  0
    0.8995   20.7572   -4.9733 C   0  0  0  0  0  0  0  0  0  0  0  0
   -0.0194   18.6144   -5.0413 C   0  0  0  0  0  0  0  0  0  0  0  0
   -2.7969   19.7411   -7.1717 C   0  0  0  0  0  0  0  0  0  0  0  0
   -0.0583   21.3832   -5.6754 N   0  0  0  0  0  0  0  0  0  0  0  0
    0.9701   19.4542   -4.6398 N   0  0  0  0  0  0  0  0  0  0  0  0
   -2.0788   20.8638   -6.8478 N   0  0  0  0  0  0  0  0  0  0  0  0
   -2.2771   21.8089   -7.1428 H   0  0  0  0  0  0  0  0  0  0  0  0
    1.2857   16.7010   -4.2998 C   0  0  0  0  0  0  0  0  0  0  0  0
    1.1469   15.4338   -3.4355 C   0  0  0  0  0  0  0  0  0  0  0  0
   -0.0663   14.6024   -3.8597 C   0  0  0  0  0  0  0  0  0  0  0  0
   -1.3671   15.4049   -3.8141 C   0  0  0  0  0  0  0  0  0  0  0  0
   -1.1583   16.9185   -3.7851 C   0  0  0  0  0  0  0  0  0  0  0  0
    2.4236   14.5948   -3.4891 C   0  0  0  0  0  0  0  0  0  0  0  0
   -0.0159   17.2891   -4.6123 N   0  0  0  0  0  0  0  0  0  0  0  0
   -4.2582   15.5332   -6.6403 C   0  0  0  0  0  0  0  0  0  0  0  0
   -3.8188   16.8336   -6.3772 C   0  0  0  0  0  0  0  0  0  0  0  0
   -2.5745   17.2777   -6.8473 C   0  0  0  0  0  0  0  0  0  0  0  0
   -1.7568   16.3887   -7.5535 C   0  0  0  0  0  0  0  0  0  0  0  0
   -2.1866   15.0826   -7.8049 C   0  0  0  0  0  0  0  0  0  0  0  0
   -3.4381   14.6569   -7.3555 C   0  0  0  0  0  0  0  0  0  0  0  0
   -5.5606   15.1180   -6.2066 C   0  0  0  0  0  0  0  0  0  0  0  0
   -6.6171   14.7748   -5.8736 N   0  0  0  0  0  0  0  0  0  0  0  0
 18 24  1  0  0  0
 19 20  2  0  0  0
 20  1  1  0  0  0
 21 22  2  0  0  0
 23 18  2  0  0  0
  1  2  1  0  0  0
  2  3  2  0  0  0
  3  9  1  0  0  0
  4  7  2  0  0  0
  5  8  2  0  0  0
  5 17  1  0  0  0
 11 17  1  0  0  0
 11 12  1  0  0  0
 12 13  1  0  0  0
 12 16  1  0  0  0
 13 14  1  0  0  0
 14 15  1  0  0  0
 15 17  1  0  0  0
  9  6  1  0  0  0
 18 19  1  0  0  0
 20 21  1  0  0  0
 22 23  1  0  0  0
  3  7  1  0  0  0
  4  8  1  0  0  0
  5  2  1  0  0  0
  6  1  2  0  0  0
 24 25  3  0  0  0
  9 10  1  0  0  0
M  END
> <minimizedAffinity>
-8.77302

$$$$
CHEMBL3393342


 25 28  0  0  0  0  0  0  0  0999 V2000
    0.7222   14.9288   -3.9194 C   0  0  0  0  0  0  0  0  0  0  0  0
    0.9631   16.3293   -3.7090 C   0  0  0  0  0  0  0  0  0  0  0  0
    2.1589   16.4213   -3.0127 C   0  0  0  0  0  0  0  0  0  0  0  0
    1.9851   18.6145   -2.7870 C   0  0  0  0  0  0  0  0  0  0  0  0
    0.3004   17.5447   -3.9946 C   0  0  0  0  0  0  0  0  0  0  0  0
    1.8184   14.2446   -3.4229 C   0  0  0  0  0  0  0  0  0  0  0  0
    2.7340   17.5307   -2.5292 N   0  0  0  0  0  0  0  0  0  0  0  0
    0.8298   18.6834   -3.4759 N   0  0  0  0  0  0  0  0  0  0  0  0
    2.6821   15.1650   -2.8862 N   0  0  0  0  0  0  0  0  0  0  0  0
    3.5577   14.9679   -2.4237 H   0  0  0  0  0  0  0  0  0  0  0  0
   -2.0848   17.1286   -4.2218 C   0  0  0  0  0  0  0  0  0  0  0  0
   -3.3118   17.6507   -4.9926 C   0  0  0  0  0  0  0  0  0  0  0  0
   -3.0461   17.6885   -6.4995 C   0  0  0  0  0  0  0  0  0  0  0  0
   -1.8174   18.5269   -6.8535 C   0  0  0  0  0  0  0  0  0  0  0  0
   -0.8840   18.7846   -5.6712 C   0  0  0  0  0  0  0  0  0  0  0  0
   -4.5494   16.8089   -4.6820 C   0  0  0  0  0  0  0  0  0  0  0  0
   -0.8337   17.6159   -4.8003 N   0  0  0  0  0  0  0  0  0  0  0  0
   -2.1152   14.0248   -6.2095 C   0  0  0  0  0  0  0  0  0  0  0  0
   -1.0096   14.6808   -5.6612 C   0  0  0  0  0  0  0  0  0  0  0  0
   -0.4581   14.2583   -4.4431 C   0  0  0  0  0  0  0  0  0  0  0  0
   -1.0527   13.1919   -3.7599 C   0  0  0  0  0  0  0  0  0  0  0  0
   -2.1681   12.5437   -4.2979 C   0  0  0  0  0  0  0  0  0  0  0  0
   -2.6949   12.9543   -5.5240 C   0  0  0  0  0  0  0  0  0  0  0  0
   -2.6252   14.4305   -7.4870 C   0  0  0  0  0  0  0  0  0  0  0  0
   -3.0208   14.7531   -8.5282 N   0  0  0  0  0  0  0  0  0  0  0  0
 18 24  1  0  0  0
 19 20  2  0  0  0
 20  1  1  0  0  0
 21 22  2  0  0  0
 23 18  2  0  0  0
  1  2  1  0  0  0
  2  3  2  0  0  0
  3  9  1  0  0  0
  4  7  2  0  0  0
  5  8  2  0  0  0
  5 17  1  0  0  0
 11 17  1  0  0  0
 11 12  1  0  0  0
 12 13  1  0  0  0
 12 16  1  0  0  0
 13 14  1  0  0  0
 14 15  1  0  0  0
 15 17  1  0  0  0
  9  6  1  0  0  0
 18 19  1  0  0  0
 20 21  1  0  0  0
 22 23  1  0  0  0
  3  7  1  0  0  0
  4  8  1  0  0  0
  5  2  1  0  0  0
  6  1  2  0  0  0
 24 25  3  0  0  0
  9 10  1  0  0  0
M  END
> <minimizedAffinity>
-8.41206

$$$$
CHEMBL3393342


 25 28  0  0  0  0  0  0  0  0999 V2000
   -0.4881   14.0338   -4.2770 C   0  0  0  0  0  0  0  0  0  0  0  0
   -0.4280   15.4650   -4.3849 C   0  0  0  0  0  0  0  0  0  0  0  0
    0.5833   15.8806   -3.5318 C   0  0  0  0  0  0  0  0  0  0  0  0
    0.1622   18.0207   -3.8981 C   0  0  0  0  0  0  0  0  0  0  0  0
   -1.1276   16.4778   -5.0798 C   0  0  0  0  0  0  0  0  0  0  0  0
    0.5402   13.6419   -3.4371 C   0  0  0  0  0  0  0  0  0  0  0  0
    0.9392   17.1406   -3.2472 N   0  0  0  0  0  0  0  0  0  0  0  0
   -0.8261   17.7675   -4.7773 N   0  0  0  0  0  0  0  0  0  0  0  0
    1.1838   14.7726   -3.0029 N   0  0  0  0  0  0  0  0  0  0  0  0
    1.9589   14.8113   -2.3570 H   0  0  0  0  0  0  0  0  0  0  0  0
   -3.3821   16.8339   -5.9193 C   0  0  0  0  0  0  0  0  0  0  0  0
   -4.1686   16.8329   -7.2435 C   0  0  0  0  0  0  0  0  0  0  0  0
   -3.9494   15.5313   -8.0186 C   0  0  0  0  0  0  0  0  0  0  0  0
   -2.4702   15.2601   -8.2951 C   0  0  0  0  0  0  0  0  0  0  0  0
   -1.5188   16.0637   -7.4094 C   0  0  0  0  0  0  0  0  0  0  0  0
   -5.6579   17.0696   -6.9932 C   0  0  0  0  0  0  0  0  0  0  0  0
   -2.0714   16.2033   -6.0670 N   0  0  0  0  0  0  0  0  0  0  0  0
   -3.7362   12.6660   -5.5776 C   0  0  0  0  0  0  0  0  0  0  0  0
   -2.7879   13.5260   -5.0168 C   0  0  0  0  0  0  0  0  0  0  0  0
   -1.4660   13.1023   -4.8181 C   0  0  0  0  0  0  0  0  0  0  0  0
   -1.1138   11.7904   -5.1536 C   0  0  0  0  0  0  0  0  0  0  0  0
   -2.0636   10.9228   -5.7003 C   0  0  0  0  0  0  0  0  0  0  0  0
   -3.3711   11.3612   -5.9188 C   0  0  0  0  0  0  0  0  0  0  0  0
   -5.0662   13.1379   -5.8323 C   0  0  0  0  0  0  0  0  0  0  0  0
   -6.1409   13.5117   -6.0561 N   0  0  0  0  0  0  0  0  0  0  0  0
 18 24  1  0  0  0
 19 20  2  0  0  0
 20  1  1  0  0  0
 21 22  2  0  0  0
 23 18  2  0  0  0
  1  2  1  0  0  0
  2  3  2  0  0  0
  3  9  1  0  0  0
  4  7  2  0  0  0
  5  8  2  0  0  0
  5 17  1  0  0  0
 11 17  1  0  0  0
 11 12  1  0  0  0
 12 13  1  0  0  0
 12 16  1  0  0  0
 13 14  1  0  0  0
 14 15  1  0  0  0
 15 17  1  0  0  0
  9  6  1  0  0  0
 18 19  1  0  0  0
 20 21  1  0  0  0
 22 23  1  0  0  0
  3  7  1  0  0  0
  4  8  1  0  0  0
  5  2  1  0  0  0
  6  1  2  0  0  0
 24 25  3  0  0  0
  9 10  1  0  0  0
M  END
> <minimizedAffinity>
-8.30813

$$$$
CHEMBL3393342


 25 28  0  0  0  0  0  0  0  0999 V2000
    0.1977   18.6241   -4.5382 C   0  0  0  0  0  0  0  0  0  0  0  0
   -0.5453   19.5235   -5.3765 C   0  0  0  0  0  0  0  0  0  0  0  0
    0.0455   20.7701   -5.2347 C   0  0  0  0  0  0  0  0  0  0  0  0
   -1.4855   21.7592   -6.4875 C   0  0  0  0  0  0  0  0  0  0  0  0
   -1.6740   19.4493   -6.2241 C   0  0  0  0  0  0  0  0  0  0  0  0
    1.2515   19.3417   -3.9988 C   0  0  0  0  0  0  0  0  0  0  0  0
   -0.3651   21.9289   -5.7678 N   0  0  0  0  0  0  0  0  0  0  0  0
   -2.1468   20.6136   -6.7406 N   0  0  0  0  0  0  0  0  0  0  0  0
    1.1485   20.6367   -4.4388 N   0  0  0  0  0  0  0  0  0  0  0  0
    1.7568   21.4042   -4.1931 H   0  0  0  0  0  0  0  0  0  0  0  0
   -3.7436   18.2458   -6.6517 C   0  0  0  0  0  0  0  0  0  0  0  0
   -4.2699   17.0373   -7.4483 C   0  0  0  0  0  0  0  0  0  0  0  0
   -3.4504   15.7784   -7.1537 C   0  0  0  0  0  0  0  0  0  0  0  0
   -1.9603   15.9745   -7.4353 C   0  0  0  0  0  0  0  0  0  0  0  0
   -1.5364   17.4399   -7.5259 C   0  0  0  0  0  0  0  0  0  0  0  0
   -5.7519   16.7980   -7.1600 C   0  0  0  0  0  0  0  0  0  0  0  0
   -2.2840   18.2447   -6.5666 N   0  0  0  0  0  0  0  0  0  0  0  0
    0.7336   15.0184   -3.6302 C   0  0  0  0  0  0  0  0  0  0  0  0
    0.9744   16.3387   -4.0205 C   0  0  0  0  0  0  0  0  0  0  0  0
   -0.0855   17.2433   -4.1779 C   0  0  0  0  0  0  0  0  0  0  0  0
   -1.3965   16.7978   -3.9762 C   0  0  0  0  0  0  0  0  0  0  0  0
   -1.6418   15.4739   -3.6009 C   0  0  0  0  0  0  0  0  0  0  0  0
   -0.5787   14.5868   -3.4212 C   0  0  0  0  0  0  0  0  0  0  0  0
    1.8348   14.1260   -3.4121 C   0  0  0  0  0  0  0  0  0  0  0  0
    2.7145   13.3897   -3.2426 N   0  0  0  0  0  0  0  0  0  0  0  0
 18 24  1  0  0  0
 19 20  2  0  0  0
 20  1  1  0  0  0
 21 22  2  0  0  0
 23 18  2  0  0  0
  1  2  1  0  0  0
  2  3  2  0  0  0
  3  9  1  0  0  0
  4  7  2  0  0  0
  5  8  2  0  0  0
  5 17  1  0  0  0
 11 17  1  0  0  0
 11 12  1  0  0  0
 12 13  1  0  0  0
 12 16  1  0  0  0
 13 14  1  0  0  0
 14 15  1  0  0  0
 15 17  1  0  0  0
  9  6  1  0  0  0
 18 19  1  0  0  0
 20 21  1  0  0  0
 22 23  1  0  0  0
  3  7  1  0  0  0
  4  8  1  0  0  0
  5  2  1  0  0  0
  6  1  2  0  0  0
 24 25  3  0  0  0
  9 10  1  0  0  0
M  END
> <minimizedAffinity>
-8.08552

$$$$
CHEMBL3393342


 25 28  0  0  0  0  0  0  0  0999 V2000
    0.0591   16.8509   -4.0047 C   0  0  0  0  0  0  0  0  0  0  0  0
    0.5199   15.5088   -3.7807 C   0  0  0  0  0  0  0  0  0  0  0  0
    1.6971   15.6143   -3.0554 C   0  0  0  0  0  0  0  0  0  0  0  0
    2.0717   13.4361   -3.1384 C   0  0  0  0  0  0  0  0  0  0  0  0
    0.1039   14.2034   -4.1283 C   0  0  0  0  0  0  0  0  0  0  0  0
    0.9237   17.6991   -3.3344 C   0  0  0  0  0  0  0  0  0  0  0  0
    2.5187   14.6204   -2.6914 N   0  0  0  0  0  0  0  0  0  0  0  0
    0.9386   13.1771   -3.8187 N   0  0  0  0  0  0  0  0  0  0  0  0
    1.9039   16.9321   -2.7579 N   0  0  0  0  0  0  0  0  0  0  0  0
    2.6934   17.2680   -2.2256 H   0  0  0  0  0  0  0  0  0  0  0  0
   -1.3362   14.5045   -6.0647 C   0  0  0  0  0  0  0  0  0  0  0  0
   -2.4896   13.8025   -6.8057 C   0  0  0  0  0  0  0  0  0  0  0  0
   -3.6339   13.4555   -5.8500 C   0  0  0  0  0  0  0  0  0  0  0  0
   -3.1709   12.5915   -4.6765 C   0  0  0  0  0  0  0  0  0  0  0  0
   -1.6591   12.6106   -4.4540 C   0  0  0  0  0  0  0  0  0  0  0  0
   -2.9945   14.6605   -7.9657 C   0  0  0  0  0  0  0  0  0  0  0  0
   -1.1217   13.9370   -4.7345 N   0  0  0  0  0  0  0  0  0  0  0  0
   -3.4074   17.3937   -5.3469 C   0  0  0  0  0  0  0  0  0  0  0  0
   -2.3398   16.9118   -4.5844 C   0  0  0  0  0  0  0  0  0  0  0  0
   -1.0273   17.3313   -4.8448 C   0  0  0  0  0  0  0  0  0  0  0  0
   -0.7920   18.2125   -5.9058 C   0  0  0  0  0  0  0  0  0  0  0  0
   -1.8558   18.6842   -6.6802 C   0  0  0  0  0  0  0  0  0  0  0  0
   -3.1625   18.2814   -6.3975 C   0  0  0  0  0  0  0  0  0  0  0  0
   -4.7490   17.0029   -5.0244 C   0  0  0  0  0  0  0  0  0  0  0  0
   -5.8401   16.6949   -4.7803 N   0  0  0  0  0  0  0  0  0  0  0  0
 18 24  1  0  0  0
 19 20  2  0  0  0
 20  1  1  0  0  0
 21 22  2  0  0  0
 23 18  2  0  0  0
  1  2  1  0  0  0
  2  3  2  0  0  0
  3  9  1  0  0  0
  4  7  2  0  0  0
  5  8  2  0  0  0
  5 17  1  0  0  0
 11 17  1  0  0  0
 11 12  1  0  0  0
 12 13  1  0  0  0
 12 16  1  0  0  0
 13 14  1  0  0  0
 14 15  1  0  0  0
 15 17  1  0  0  0
  9  6  1  0  0  0
 18 19  1  0  0  0
 20 21  1  0  0  0
 22 23  1  0  0  0
  3  7  1  0  0  0
  4  8  1  0  0  0
  5  2  1  0  0  0
  6  1  2  0  0  0
 24 25  3  0  0  0
  9 10  1  0  0  0
M  END
> <minimizedAffinity>
-8.01618

$$$$
CHEMBL3393342


 25 28  0  0  0  0  0  0  0  0999 V2000
   -0.7731   18.6213   -5.3193 C   0  0  0  0  0  0  0  0  0  0  0  0
   -1.7970   19.1671   -6.1664 C   0  0  0  0  0  0  0  0  0  0  0  0
   -1.4459   20.4872   -6.4052 C   0  0  0  0  0  0  0  0  0  0  0  0
   -3.3143   20.8977   -7.5152 C   0  0  0  0  0  0  0  0  0  0  0  0
   -3.0063   18.7179   -6.7442 C   0  0  0  0  0  0  0  0  0  0  0  0
    0.1907   19.6015   -5.1565 C   0  0  0  0  0  0  0  0  0  0  0  0
   -2.1514   21.4063   -7.0782 N   0  0  0  0  0  0  0  0  0  0  0  0
   -3.7705   19.6367   -7.3905 N   0  0  0  0  0  0  0  0  0  0  0  0
   -0.2290   20.7210   -5.8285 N   0  0  0  0  0  0  0  0  0  0  0  0
    0.2485   21.6096   -5.8712 H   0  0  0  0  0  0  0  0  0  0  0  0
   -4.7705   17.1284   -6.2197 C   0  0  0  0  0  0  0  0  0  0  0  0
   -5.2642   15.7274   -6.6267 C   0  0  0  0  0  0  0  0  0  0  0  0
   -4.1364   14.6958   -6.5451 C   0  0  0  0  0  0  0  0  0  0  0  0
   -2.9275   15.0859   -7.3962 C   0  0  0  0  0  0  0  0  0  0  0  0
   -2.8997   16.5623   -7.7897 C   0  0  0  0  0  0  0  0  0  0  0  0
   -6.4538   15.2980   -5.7682 C   0  0  0  0  0  0  0  0  0  0  0  0
   -3.4150   17.3869   -6.7028 N   0  0  0  0  0  0  0  0  0  0  0  0
    0.5931   15.4873   -3.7623 C   0  0  0  0  0  0  0  0  0  0  0  0
    0.5105   16.6956   -4.4597 C   0  0  0  0  0  0  0  0  0  0  0  0
   -0.7230   17.3405   -4.6309 C   0  0  0  0  0  0  0  0  0  0  0  0
   -1.8814   16.7392   -4.1267 C   0  0  0  0  0  0  0  0  0  0  0  0
   -1.8043   15.5229   -3.4423 C   0  0  0  0  0  0  0  0  0  0  0  0
   -0.5686   14.9008   -3.2538 C   0  0  0  0  0  0  0  0  0  0  0  0
    1.8714   14.8758   -3.5421 C   0  0  0  0  0  0  0  0  0  0  0  0
    2.8962   14.3660   -3.3557 N   0  0  0  0  0  0  0  0  0  0  0  0
 18 24  1  0  0  0
 19 20  2  0  0  0
 20  1  1  0  0  0
 21 22  2  0  0  0
 23 18  2  0  0  0
  1  2  1  0  0  0
  2  3  2  0  0  0
  3  9  1  0  0  0
  4  7  2  0  0  0
  5  8  2  0  0  0
  5 17  1  0  0  0
 11 17  1  0  0  0
 11 12  1  0  0  0
 12 13  1  0  0  0
 12 16  1  0  0  0
 13 14  1  0  0  0
 14 15  1  0  0  0
 15 17  1  0  0  0
  9  6  1  0  0  0
 18 19  1  0  0  0
 20 21  1  0  0  0
 22 23  1  0  0  0
  3  7  1  0  0  0
  4  8  1  0  0  0
  5  2  1  0  0  0
  6  1  2  0  0  0
 24 25  3  0  0  0
  9 10  1  0  0  0
M  END
> <minimizedAffinity>
-7.97777

$$$$
CHEMBL3393342


 25 28  0  0  0  0  0  0  0  0999 V2000
   -2.6981   20.6798   -6.3969 C   0  0  0  0  0  0  0  0  0  0  0  0
   -1.3922   20.3181   -5.9198 C   0  0  0  0  0  0  0  0  0  0  0  0
   -0.7032   21.5056   -5.7246 C   0  0  0  0  0  0  0  0  0  0  0  0
    1.1765   20.4581   -5.2136 C   0  0  0  0  0  0  0  0  0  0  0  0
   -0.6851   19.1234   -5.6536 C   0  0  0  0  0  0  0  0  0  0  0  0
   -2.7711   22.0621   -6.3850 C   0  0  0  0  0  0  0  0  0  0  0  0
    0.5790   21.6508   -5.3635 N   0  0  0  0  0  0  0  0  0  0  0  0
    0.6309   19.2327   -5.3342 N   0  0  0  0  0  0  0  0  0  0  0  0
   -1.5574   22.5447   -5.9665 N   0  0  0  0  0  0  0  0  0  0  0  0
   -1.2945   23.5159   -5.8821 H   0  0  0  0  0  0  0  0  0  0  0  0
   -1.4879   17.2546   -6.9868 C   0  0  0  0  0  0  0  0  0  0  0  0
   -1.7329   15.7380   -6.8769 C   0  0  0  0  0  0  0  0  0  0  0  0
   -2.5937   15.4016   -5.6567 C   0  0  0  0  0  0  0  0  0  0  0  0
   -1.9866   15.9234   -4.3540 C   0  0  0  0  0  0  0  0  0  0  0  0
   -0.9257   17.0046   -4.5564 C   0  0  0  0  0  0  0  0  0  0  0  0
   -2.3707   15.1949   -8.1556 C   0  0  0  0  0  0  0  0  0  0  0  0
   -1.2879   17.8677   -5.6747 N   0  0  0  0  0  0  0  0  0  0  0  0
   -5.3857   18.0596   -6.5512 C   0  0  0  0  0  0  0  0  0  0  0  0
   -4.3305   18.8530   -6.0926 C   0  0  0  0  0  0  0  0  0  0  0  0
   -3.7632   19.8358   -6.9165 C   0  0  0  0  0  0  0  0  0  0  0  0
   -4.2417   19.9888   -8.2224 C   0  0  0  0  0  0  0  0  0  0  0  0
   -5.2866   19.1864   -8.6894 C   0  0  0  0  0  0  0  0  0  0  0  0
   -5.8629   18.2279   -7.8535 C   0  0  0  0  0  0  0  0  0  0  0  0
   -5.9951   17.1041   -5.6725 C   0  0  0  0  0  0  0  0  0  0  0  0
   -6.4719   16.3317   -4.9507 N   0  0  0  0  0  0  0  0  0  0  0  0
 18 24  1  0  0  0
 19 20  2  0  0  0
 20  1  1  0  0  0
 21 22  2  0  0  0
 23 18  2  0  0  0
  1  2  1  0  0  0
  2  3  2  0  0  0
  3  9  1  0  0  0
  4  7  2  0  0  0
  5  8  2  0  0  0
  5 17  1  0  0  0
 11 17  1  0  0  0
 11 12  1  0  0  0
 12 13  1  0  0  0
 12 16  1  0  0  0
 13 14  1  0  0  0
 14 15  1  0  0  0
 15 17  1  0  0  0
  9  6  1  0  0  0
 18 19  1  0  0  0
 20 21  1  0  0  0
 22 23  1  0  0  0
  3  7  1  0  0  0
  4  8  1  0  0  0
  5  2  1  0  0  0
  6  1  2  0  0  0
 24 25  3  0  0  0
  9 10  1  0  0  0
M  END
> <minimizedAffinity>
-7.55488

$$$$
CHEMBL3393342


 25 28  0  0  0  0  0  0  0  0999 V2000
    0.5327   18.5411   -4.3455 C   0  0  0  0  0  0  0  0  0  0  0  0
    0.6553   17.1949   -3.8593 C   0  0  0  0  0  0  0  0  0  0  0  0
    1.8394   17.1444   -3.1391 C   0  0  0  0  0  0  0  0  0  0  0  0
    1.6661   14.9661   -2.7973 C   0  0  0  0  0  0  0  0  0  0  0  0
   -0.0763   15.9898   -3.9622 C   0  0  0  0  0  0  0  0  0  0  0  0
    1.5946   19.2628   -3.8281 C   0  0  0  0  0  0  0  0  0  0  0  0
    2.4004   16.0673   -2.5731 N   0  0  0  0  0  0  0  0  0  0  0  0
    0.4882   14.8684   -3.4430 N   0  0  0  0  0  0  0  0  0  0  0  0
    2.3701   18.4030   -3.0928 N   0  0  0  0  0  0  0  0  0  0  0  0
    3.2303   18.6299   -2.6153 H   0  0  0  0  0  0  0  0  0  0  0  0
   -1.6214   14.7652   -5.3860 C   0  0  0  0  0  0  0  0  0  0  0  0
   -3.1335   14.5590   -5.5934 C   0  0  0  0  0  0  0  0  0  0  0  0
   -3.8619   15.8974   -5.7386 C   0  0  0  0  0  0  0  0  0  0  0  0
   -3.6248   16.8220   -4.5440 C   0  0  0  0  0  0  0  0  0  0  0  0
   -2.4176   16.4327   -3.6917 C   0  0  0  0  0  0  0  0  0  0  0  0
   -3.4006   13.6634   -6.8032 C   0  0  0  0  0  0  0  0  0  0  0  0
   -1.3438   15.9219   -4.5360 N   0  0  0  0  0  0  0  0  0  0  0  0
   -1.6732   21.0302   -6.0923 C   0  0  0  0  0  0  0  0  0  0  0  0
   -0.7932   20.4520   -5.1733 C   0  0  0  0  0  0  0  0  0  0  0  0
   -0.4224   19.1044   -5.2875 C   0  0  0  0  0  0  0  0  0  0  0  0
   -0.9751   18.3308   -6.3140 C   0  0  0  0  0  0  0  0  0  0  0  0
   -1.8676   18.9021   -7.2255 C   0  0  0  0  0  0  0  0  0  0  0  0
   -2.2112   20.2512   -7.1198 C   0  0  0  0  0  0  0  0  0  0  0  0
   -1.9902   22.4255   -5.9969 C   0  0  0  0  0  0  0  0  0  0  0  0
   -2.2459   23.5552   -5.9392 N   0  0  0  0  0  0  0  0  0  0  0  0
 18 24  1  0  0  0
 19 20  2  0  0  0
 20  1  1  0  0  0
 21 22  2  0  0  0
 23 18  2  0  0  0
  1  2  1  0  0  0
  2  3  2  0  0  0
  3  9  1  0  0  0
  4  7  2  0  0  0
  5  8  2  0  0  0
  5 17  1  0  0  0
 11 17  1  0  0  0
 11 12  1  0  0  0
 12 13  1  0  0  0
 12 16  1  0  0  0
 13 14  1  0  0  0
 14 15  1  0  0  0
 15 17  1  0  0  0
  9  6  1  0  0  0
 18 19  1  0  0  0
 20 21  1  0  0  0
 22 23  1  0  0  0
  3  7  1  0  0  0
  4  8  1  0  0  0
  5  2  1  0  0  0
  6  1  2  0  0  0
 24 25  3  0  0  0
  9 10  1  0  0  0
M  END
> <minimizedAffinity>
-7.24502

$$$$
CHEMBL3393342


 25 28  0  0  0  0  0  0  0  0999 V2000
   -1.2793   18.0252   -6.2427 C   0  0  0  0  0  0  0  0  0  0  0  0
   -2.0520   19.2250   -6.0777 C   0  0  0  0  0  0  0  0  0  0  0  0
   -1.1554   20.2240   -5.7295 C   0  0  0  0  0  0  0  0  0  0  0  0
   -2.7634   21.7110   -5.4218 C   0  0  0  0  0  0  0  0  0  0  0  0
   -3.4150   19.5927   -6.1491 C   0  0  0  0  0  0  0  0  0  0  0  0
    0.0514   18.3676   -6.0751 C   0  0  0  0  0  0  0  0  0  0  0  0
   -1.4394   21.4908   -5.3978 N   0  0  0  0  0  0  0  0  0  0  0  0
   -3.7434   20.8556   -5.7708 N   0  0  0  0  0  0  0  0  0  0  0  0
    0.1080   19.7046   -5.7741 N   0  0  0  0  0  0  0  0  0  0  0  0
    0.9398   20.2391   -5.5699 H   0  0  0  0  0  0  0  0  0  0  0  0
   -4.8698   17.6981   -5.6930 C   0  0  0  0  0  0  0  0  0  0  0  0
   -6.2286   17.1153   -6.1243 C   0  0  0  0  0  0  0  0  0  0  0  0
   -6.3161   16.9780   -7.6464 C   0  0  0  0  0  0  0  0  0  0  0  0
   -6.0702   18.3047   -8.3658 C   0  0  0  0  0  0  0  0  0  0  0  0
   -5.3833   19.3593   -7.4991 C   0  0  0  0  0  0  0  0  0  0  0  0
   -6.4857   15.7707   -5.4440 C   0  0  0  0  0  0  0  0  0  0  0  0
   -4.4063   18.7327   -6.6162 N   0  0  0  0  0  0  0  0  0  0  0  0
   -1.8624   14.3658   -5.6253 C   0  0  0  0  0  0  0  0  0  0  0  0
   -1.4083   15.6799   -5.4829 C   0  0  0  0  0  0  0  0  0  0  0  0
   -1.7245   16.6543   -6.4405 C   0  0  0  0  0  0  0  0  0  0  0  0
   -2.4711   16.2865   -7.5653 C   0  0  0  0  0  0  0  0  0  0  0  0
   -2.9136   14.9695   -7.7185 C   0  0  0  0  0  0  0  0  0  0  0  0
   -2.6161   14.0116   -6.7471 C   0  0  0  0  0  0  0  0  0  0  0  0
   -1.5831   13.3990   -4.6036 C   0  0  0  0  0  0  0  0  0  0  0  0
   -1.3719   12.6244   -3.7668 N   0  0  0  0  0  0  0  0  0  0  0  0
 18 24  1  0  0  0
 19 20  2  0  0  0
 20  1  1  0  0  0
 21 22  2  0  0  0
 23 18  2  0  0  0
  1  2  1  0  0  0
  2  3  2  0  0  0
  3  9  1  0  0  0
  4  7  2  0  0  0
  5  8  2  0  0  0
  5 17  1  0  0  0
 11 17  1  0  0  0
 11 12  1  0  0  0
 12 13  1  0  0  0
 12 16  1  0  0  0
 13 14  1  0  0  0
 14 15  1  0  0  0
 15 17  1  0  0  0
  9  6  1  0  0  0
 18 19  1  0  0  0
 20 21  1  0  0  0
 22 23  1  0  0  0
  3  7  1  0  0  0
  4  8  1  0  0  0
  5  2  1  0  0  0
  6  1  2  0  0  0
 24 25  3  0  0  0
  9 10  1  0  0  0
M  END
> <minimizedAffinity>
-7.23780

$$$$
CHEMBL4468002


 34 38  0  0  0  0  0  0  0  0999 V2000
   -1.4219   14.0189   -4.5761 C   0  0  0  0  0  0  0  0  0  0  0  0
   -1.6663   15.0485   -5.5079 C   0  0  0  0  0  0  0  0  0  0  0  0
   -2.6564   14.9236   -6.4948 C   0  0  0  0  0  0  0  0  0  0  0  0
   -3.3824   13.7337   -6.5617 C   0  0  0  0  0  0  0  0  0  0  0  0
   -3.1444   12.6997   -5.6557 C   0  0  0  0  0  0  0  0  0  0  0  0
   -2.1741   12.8411   -4.6686 C   0  0  0  0  0  0  0  0  0  0  0  0
    2.1390   14.2737   -3.3275 C   0  0  0  0  0  0  0  0  0  0  0  0
    0.9396   13.4630   -3.8113 C   0  0  0  0  0  0  0  0  0  0  0  0
   -0.3922   14.1572   -3.4603 C   0  0  0  0  0  0  0  0  0  0  0  0
   -0.2040   15.6215   -2.9950 C   0  0  0  0  0  0  0  0  0  0  0  0
    2.1137   15.6695   -3.9540 C   0  0  0  0  0  0  0  0  0  0  0  0
    0.8138   16.3076   -3.7992 N   0  0  0  0  0  0  0  0  0  0  0  0
    0.5043   17.5343   -4.3672 C   0  0  0  0  0  0  0  0  0  0  0  0
   -0.6124   18.6884   -6.0895 C   0  0  0  0  0  0  0  0  0  0  0  0
    0.6351   19.8986   -4.7319 C   0  0  0  0  0  0  0  0  0  0  0  0
    1.0099   18.7995   -3.9658 C   0  0  0  0  0  0  0  0  0  0  0  0
    1.8674   19.3250   -2.9482 C   0  0  0  0  0  0  0  0  0  0  0  0
    1.9936   20.6851   -3.1387 C   0  0  0  0  0  0  0  0  0  0  0  0
   -0.3276   17.5418   -5.4496 N   0  0  0  0  0  0  0  0  0  0  0  0
   -0.1651   19.9153   -5.8046 N   0  0  0  0  0  0  0  0  0  0  0  0
    1.2319   21.0186   -4.2240 N   0  0  0  0  0  0  0  0  0  0  0  0
    1.1103   21.9414   -4.6154 H   0  0  0  0  0  0  0  0  0  0  0  0
   -3.6136   17.1482   -7.1312 C   0  0  0  0  0  0  0  0  0  0  0  0
   -2.8561   16.0127   -7.3793 N   0  0  0  0  0  0  0  0  0  0  0  0
   -3.7277   17.9458   -8.2596 N   0  0  0  0  0  0  0  0  0  0  0  0
   -4.1278   17.4172   -6.0499 O   0  0  0  0  0  0  0  0  0  0  0  0
   -2.3429   15.9732   -8.2463 H   0  0  0  0  0  0  0  0  0  0  0  0
   -3.1806   17.6827   -9.0647 H   0  0  0  0  0  0  0  0  0  0  0  0
   -4.5165   19.1166   -8.3849 C   0  0  0  0  0  0  0  0  0  0  0  0
   -3.8843   20.3583   -8.4482 C   0  0  0  0  0  0  0  0  0  0  0  0
   -5.8689   21.5061   -8.6428 C   0  0  0  0  0  0  0  0  0  0  0  0
   -6.5974   20.3316   -8.5986 C   0  0  0  0  0  0  0  0  0  0  0  0
   -5.9082   19.1253   -8.4699 C   0  0  0  0  0  0  0  0  0  0  0  0
   -4.5221   21.5497   -8.5732 N   0  0  0  0  0  0  0  0  0  0  0  0
  7  8  1  0  0  0
  8  9  1  0  0  0
  9 10  1  0  0  0
  9  1  1  0  0  0
 10 12  1  0  0  0
 11 12  1  0  0  0
 11  7  1  0  0  0
 14 19  2  0  0  0
 15 20  2  0  0  0
 16 17  1  0  0  0
 16 13  2  0  0  0
 18 21  1  0  0  0
  2  3  2  0  0  0
  3 24  1  0  0  0
  4  5  2  0  0  0
  6  1  2  0  0  0
 23 25  1  0  0  0
 30 34  2  0  0  0
 31 32  2  0  0  0
 33 29  2  0  0  0
 12 13  1  0  0  0
 21 15  1  0  0  0
 24 23  1  0  0  0
 25 29  1  0  0  0
 13 19  1  0  0  0
 14 20  1  0  0  0
 15 16  1  0  0  0
 17 18  2  0  0  0
  1  2  1  0  0  0
  3  4  1  0  0  0
  5  6  1  0  0  0
 23 26  2  0  0  0
 29 30  1  0  0  0
 31 34  1  0  0  0
 32 33  1  0  0  0
 21 22  1  0  0  0
 24 27  1  0  0  0
 25 28  1  0  0  0
M  END
> <minimizedAffinity>
-10.66245

$$$$
CHEMBL4468002


 34 38  0  0  0  0  0  0  0  0999 V2000
   -1.0989   13.2917   -4.2333 C   0  0  0  0  0  0  0  0  0  0  0  0
   -2.2021   14.0971   -4.5830 C   0  0  0  0  0  0  0  0  0  0  0  0
   -3.2044   13.6311   -5.4481 C   0  0  0  0  0  0  0  0  0  0  0  0
   -3.0726   12.3525   -5.9911 C   0  0  0  0  0  0  0  0  0  0  0  0
   -1.9806   11.5472   -5.6660 C   0  0  0  0  0  0  0  0  0  0  0  0
   -1.0024   12.0109   -4.7919 C   0  0  0  0  0  0  0  0  0  0  0  0
    2.4285   14.3668   -3.3935 C   0  0  0  0  0  0  0  0  0  0  0  0
    1.3806   13.2907   -3.6654 C   0  0  0  0  0  0  0  0  0  0  0  0
   -0.0301   13.7560   -3.2503 C   0  0  0  0  0  0  0  0  0  0  0  0
   -0.1019   15.2744   -2.9581 C   0  0  0  0  0  0  0  0  0  0  0  0
    2.0726   15.6468   -4.1525 C   0  0  0  0  0  0  0  0  0  0  0  0
    0.6882   16.0400   -3.9291 N   0  0  0  0  0  0  0  0  0  0  0  0
    0.0936   17.1083   -4.5835 C   0  0  0  0  0  0  0  0  0  0  0  0
   -1.3742   17.8138   -6.2845 C   0  0  0  0  0  0  0  0  0  0  0  0
   -0.2797   19.3928   -5.2015 C   0  0  0  0  0  0  0  0  0  0  0  0
    0.3704   18.4853   -4.3714 C   0  0  0  0  0  0  0  0  0  0  0  0
    1.1909   19.2823   -3.5120 C   0  0  0  0  0  0  0  0  0  0  0  0
    1.0275   20.6084   -3.8540 C   0  0  0  0  0  0  0  0  0  0  0  0
   -0.8133   16.8278   -5.5646 N   0  0  0  0  0  0  0  0  0  0  0  0
   -1.1566   19.1282   -6.1773 N   0  0  0  0  0  0  0  0  0  0  0  0
    0.1243   20.6583   -4.8790 N   0  0  0  0  0  0  0  0  0  0  0  0
   -0.2115   21.4872   -5.3478 H   0  0  0  0  0  0  0  0  0  0  0  0
   -4.3848   15.3827   -6.7929 C   0  0  0  0  0  0  0  0  0  0  0  0
   -4.2926   14.4935   -5.7321 N   0  0  0  0  0  0  0  0  0  0  0  0
   -5.5116   16.1846   -6.6940 N   0  0  0  0  0  0  0  0  0  0  0  0
   -3.5698   15.4599   -7.7072 O   0  0  0  0  0  0  0  0  0  0  0  0
   -5.0965   14.3974   -5.1312 H   0  0  0  0  0  0  0  0  0  0  0  0
   -6.1666   15.9670   -5.9588 H   0  0  0  0  0  0  0  0  0  0  0  0
   -5.8514   17.2654   -7.5456 C   0  0  0  0  0  0  0  0  0  0  0  0
   -7.0999   17.2740   -8.1673 C   0  0  0  0  0  0  0  0  0  0  0  0
   -6.7064   19.2796   -9.2240 C   0  0  0  0  0  0  0  0  0  0  0  0
   -5.4503   19.3778   -8.6542 C   0  0  0  0  0  0  0  0  0  0  0  0
   -5.0233   18.3569   -7.8043 C   0  0  0  0  0  0  0  0  0  0  0  0
   -7.5476   18.2490   -8.9985 N   0  0  0  0  0  0  0  0  0  0  0  0
  7  8  1  0  0  0
  8  9  1  0  0  0
  9 10  1  0  0  0
  9  1  1  0  0  0
 10 12  1  0  0  0
 11 12  1  0  0  0
 11  7  1  0  0  0
 14 19  2  0  0  0
 15 20  2  0  0  0
 16 17  1  0  0  0
 16 13  2  0  0  0
 18 21  1  0  0  0
  2  3  2  0  0  0
  3 24  1  0  0  0
  4  5  2  0  0  0
  6  1  2  0  0  0
 23 25  1  0  0  0
 30 34  2  0  0  0
 31 32  2  0  0  0
 33 29  2  0  0  0
 12 13  1  0  0  0
 21 15  1  0  0  0
 24 23  1  0  0  0
 25 29  1  0  0  0
 13 19  1  0  0  0
 14 20  1  0  0  0
 15 16  1  0  0  0
 17 18  2  0  0  0
  1  2  1  0  0  0
  3  4  1  0  0  0
  5  6  1  0  0  0
 23 26  2  0  0  0
 29 30  1  0  0  0
 31 34  1  0  0  0
 32 33  1  0  0  0
 21 22  1  0  0  0
 24 27  1  0  0  0
 25 28  1  0  0  0
M  END
> <minimizedAffinity>
-10.52173

$$$$
CHEMBL4468002


 34 38  0  0  0  0  0  0  0  0999 V2000
   -1.4444   14.7974   -5.3808 C   0  0  0  0  0  0  0  0  0  0  0  0
   -1.6138   16.0988   -5.8963 C   0  0  0  0  0  0  0  0  0  0  0  0
   -1.1884   17.2303   -5.1832 C   0  0  0  0  0  0  0  0  0  0  0  0
   -0.6178   17.0467   -3.9231 C   0  0  0  0  0  0  0  0  0  0  0  0
   -0.4547   15.7667   -3.3923 C   0  0  0  0  0  0  0  0  0  0  0  0
   -0.8617   14.6500   -4.1158 C   0  0  0  0  0  0  0  0  0  0  0  0
   -3.2084   11.4658   -5.6856 C   0  0  0  0  0  0  0  0  0  0  0  0
   -2.0248   12.3243   -5.2476 C   0  0  0  0  0  0  0  0  0  0  0  0
   -1.8458   13.5522   -6.1636 C   0  0  0  0  0  0  0  0  0  0  0  0
   -3.0601   13.7926   -7.0929 C   0  0  0  0  0  0  0  0  0  0  0  0
   -4.4916   12.2992   -5.6737 C   0  0  0  0  0  0  0  0  0  0  0  0
   -4.3244   13.5585   -6.3859 N   0  0  0  0  0  0  0  0  0  0  0  0
   -5.3091   14.5339   -6.4327 C   0  0  0  0  0  0  0  0  0  0  0  0
   -5.9400   16.6689   -7.2004 C   0  0  0  0  0  0  0  0  0  0  0  0
   -7.3577   15.6375   -5.8624 C   0  0  0  0  0  0  0  0  0  0  0  0
   -6.5509   14.5105   -5.7435 C   0  0  0  0  0  0  0  0  0  0  0  0
   -7.2704   13.6216   -4.8837 C   0  0  0  0  0  0  0  0  0  0  0  0
   -8.4485   14.2319   -4.5070 C   0  0  0  0  0  0  0  0  0  0  0  0
   -5.0580   15.6558   -7.1689 N   0  0  0  0  0  0  0  0  0  0  0  0
   -7.1140   16.7492   -6.5666 N   0  0  0  0  0  0  0  0  0  0  0  0
   -8.4888   15.4549   -5.1169 N   0  0  0  0  0  0  0  0  0  0  0  0
   -9.2264   16.1408   -5.0456 H   0  0  0  0  0  0  0  0  0  0  0  0
   -2.5797   19.1678   -5.9452 C   0  0  0  0  0  0  0  0  0  0  0  0
   -1.3737   18.5022   -5.7803 N   0  0  0  0  0  0  0  0  0  0  0  0
   -2.4310   20.3195   -6.7027 N   0  0  0  0  0  0  0  0  0  0  0  0
   -3.6517   18.7868   -5.4850 O   0  0  0  0  0  0  0  0  0  0  0  0
   -0.5318   18.9855   -6.0527 H   0  0  0  0  0  0  0  0  0  0  0  0
   -1.4904   20.5926   -6.9428 H   0  0  0  0  0  0  0  0  0  0  0  0
   -3.4715   21.1718   -7.1496 C   0  0  0  0  0  0  0  0  0  0  0  0
   -3.9568   21.0277   -8.4492 C   0  0  0  0  0  0  0  0  0  0  0  0
   -5.4974   22.7188   -8.2021 C   0  0  0  0  0  0  0  0  0  0  0  0
   -5.1003   22.9424   -6.8966 C   0  0  0  0  0  0  0  0  0  0  0  0
   -4.0762   22.1557   -6.3683 C   0  0  0  0  0  0  0  0  0  0  0  0
   -4.9502   21.7741   -8.9952 N   0  0  0  0  0  0  0  0  0  0  0  0
  7  8  1  0  0  0
  8  9  1  0  0  0
  9 10  1  0  0  0
  9  1  1  0  0  0
 10 12  1  0  0  0
 11 12  1  0  0  0
 11  7  1  0  0  0
 14 19  2  0  0  0
 15 20  2  0  0  0
 16 17  1  0  0  0
 16 13  2  0  0  0
 18 21  1  0  0  0
  2  3  2  0  0  0
  3 24  1  0  0  0
  4  5  2  0  0  0
  6  1  2  0  0  0
 23 25  1  0  0  0
 30 34  2  0  0  0
 31 32  2  0  0  0
 33 29  2  0  0  0
 12 13  1  0  0  0
 21 15  1  0  0  0
 24 23  1  0  0  0
 25 29  1  0  0  0
 13 19  1  0  0  0
 14 20  1  0  0  0
 15 16  1  0  0  0
 17 18  2  0  0  0
  1  2  1  0  0  0
  3  4  1  0  0  0
  5  6  1  0  0  0
 23 26  2  0  0  0
 29 30  1  0  0  0
 31 34  1  0  0  0
 32 33  1  0  0  0
 21 22  1  0  0  0
 24 27  1  0  0  0
 25 28  1  0  0  0
M  END
> <minimizedAffinity>
-10.52140

$$$$
CHEMBL4468002


 34 38  0  0  0  0  0  0  0  0999 V2000
   -1.8895   13.6104   -5.0689 C   0  0  0  0  0  0  0  0  0  0  0  0
   -1.7211   14.9881   -4.8206 C   0  0  0  0  0  0  0  0  0  0  0  0
   -0.7278   15.4592   -3.9481 C   0  0  0  0  0  0  0  0  0  0  0  0
    0.0799   14.5275   -3.2946 C   0  0  0  0  0  0  0  0  0  0  0  0
   -0.0819   13.1600   -3.5188 C   0  0  0  0  0  0  0  0  0  0  0  0
   -1.0566   12.7040   -4.4009 C   0  0  0  0  0  0  0  0  0  0  0  0
   -5.4157   12.6110   -6.0022 C   0  0  0  0  0  0  0  0  0  0  0  0
   -4.0658   12.3238   -5.3502 C   0  0  0  0  0  0  0  0  0  0  0  0
   -2.9228   13.0808   -6.0569 C   0  0  0  0  0  0  0  0  0  0  0  0
   -3.4336   14.1687   -7.0324 C   0  0  0  0  0  0  0  0  0  0  0  0
   -5.7042   14.1133   -5.9672 C   0  0  0  0  0  0  0  0  0  0  0  0
   -4.5799   14.8911   -6.4693 N   0  0  0  0  0  0  0  0  0  0  0  0
   -4.5536   16.2774   -6.4477 C   0  0  0  0  0  0  0  0  0  0  0  0
   -3.5760   18.2209   -5.5463 C   0  0  0  0  0  0  0  0  0  0  0  0
   -5.2968   18.5107   -6.8950 C   0  0  0  0  0  0  0  0  0  0  0  0
   -5.4497   17.1472   -7.1246 C   0  0  0  0  0  0  0  0  0  0  0  0
   -6.5576   17.0389   -8.0233 C   0  0  0  0  0  0  0  0  0  0  0  0
   -7.0362   18.3054   -8.2859 C   0  0  0  0  0  0  0  0  0  0  0  0
   -3.6121   16.8832   -5.6666 N   0  0  0  0  0  0  0  0  0  0  0  0
   -4.3893   19.1143   -6.1182 N   0  0  0  0  0  0  0  0  0  0  0  0
   -6.2534   19.1895   -7.5969 N   0  0  0  0  0  0  0  0  0  0  0  0
   -6.3441   20.1951   -7.5867 H   0  0  0  0  0  0  0  0  0  0  0  0
    0.4677   17.6503   -4.1477 C   0  0  0  0  0  0  0  0  0  0  0  0
   -0.6080   16.8601   -3.7696 N   0  0  0  0  0  0  0  0  0  0  0  0
    0.3336   18.9525   -3.6908 N   0  0  0  0  0  0  0  0  0  0  0  0
    1.4267   17.2513   -4.8013 O   0  0  0  0  0  0  0  0  0  0  0  0
   -1.4160   17.3235   -3.3838 H   0  0  0  0  0  0  0  0  0  0  0  0
   -0.5411   19.1973   -3.2528 H   0  0  0  0  0  0  0  0  0  0  0  0
    1.2959   19.9868   -3.8055 C   0  0  0  0  0  0  0  0  0  0  0  0
    1.3186   20.7686   -4.9604 C   0  0  0  0  0  0  0  0  0  0  0  0
    3.0765   22.0524   -4.2150 C   0  0  0  0  0  0  0  0  0  0  0  0
    3.1382   21.3475   -3.0270 C   0  0  0  0  0  0  0  0  0  0  0  0
    2.2338   20.3045   -2.8240 C   0  0  0  0  0  0  0  0  0  0  0  0
    2.1827   21.7895   -5.1910 N   0  0  0  0  0  0  0  0  0  0  0  0
  7  8  1  0  0  0
  8  9  1  0  0  0
  9 10  1  0  0  0
  9  1  1  0  0  0
 10 12  1  0  0  0
 11 12  1  0  0  0
 11  7  1  0  0  0
 14 19  2  0  0  0
 15 20  2  0  0  0
 16 17  1  0  0  0
 16 13  2  0  0  0
 18 21  1  0  0  0
  2  3  2  0  0  0
  3 24  1  0  0  0
  4  5  2  0  0  0
  6  1  2  0  0  0
 23 25  1  0  0  0
 30 34  2  0  0  0
 31 32  2  0  0  0
 33 29  2  0  0  0
 12 13  1  0  0  0
 21 15  1  0  0  0
 24 23  1  0  0  0
 25 29  1  0  0  0
 13 19  1  0  0  0
 14 20  1  0  0  0
 15 16  1  0  0  0
 17 18  2  0  0  0
  1  2  1  0  0  0
  3  4  1  0  0  0
  5  6  1  0  0  0
 23 26  2  0  0  0
 29 30  1  0  0  0
 31 34  1  0  0  0
 32 33  1  0  0  0
 21 22  1  0  0  0
 24 27  1  0  0  0
 25 28  1  0  0  0
M  END
> <minimizedAffinity>
-10.10782

$$$$
CHEMBL4468002


 34 38  0  0  0  0  0  0  0  0999 V2000
   -3.3286   17.8384   -6.1862 C   0  0  0  0  0  0  0  0  0  0  0  0
   -2.4060   18.6591   -5.5056 C   0  0  0  0  0  0  0  0  0  0  0  0
   -2.0951   19.9486   -5.9643 C   0  0  0  0  0  0  0  0  0  0  0  0
   -2.6965   20.3992   -7.1402 C   0  0  0  0  0  0  0  0  0  0  0  0
   -3.6017   19.5950   -7.8333 C   0  0  0  0  0  0  0  0  0  0  0  0
   -3.9182   18.3256   -7.3595 C   0  0  0  0  0  0  0  0  0  0  0  0
   -3.1182   14.0627   -6.2498 C   0  0  0  0  0  0  0  0  0  0  0  0
   -3.6588   15.3874   -6.7815 C   0  0  0  0  0  0  0  0  0  0  0  0
   -3.7244   16.4583   -5.6735 C   0  0  0  0  0  0  0  0  0  0  0  0
   -2.9547   16.0494   -4.3943 C   0  0  0  0  0  0  0  0  0  0  0  0
   -1.7219   14.2674   -5.6585 C   0  0  0  0  0  0  0  0  0  0  0  0
   -1.6889   15.3853   -4.7256 N   0  0  0  0  0  0  0  0  0  0  0  0
   -0.5196   15.8374   -4.1327 C   0  0  0  0  0  0  0  0  0  0  0  0
    0.7753   17.6931   -3.4806 C   0  0  0  0  0  0  0  0  0  0  0  0
    1.6883   15.7035   -3.2121 C   0  0  0  0  0  0  0  0  0  0  0  0
    0.5712   15.0354   -3.7030 C   0  0  0  0  0  0  0  0  0  0  0  0
    0.9036   13.6455   -3.6341 C   0  0  0  0  0  0  0  0  0  0  0  0
    2.1832   13.5237   -3.1340 C   0  0  0  0  0  0  0  0  0  0  0  0
   -0.3624   17.1852   -3.9836 N   0  0  0  0  0  0  0  0  0  0  0  0
    1.8600   17.0240   -3.0778 N   0  0  0  0  0  0  0  0  0  0  0  0
    2.6433   14.7850   -2.8761 N   0  0  0  0  0  0  0  0  0  0  0  0
    3.5460   15.0324   -2.4973 H   0  0  0  0  0  0  0  0  0  0  0  0
    0.2049   20.5777   -5.2000 C   0  0  0  0  0  0  0  0  0  0  0  0
   -1.1751   20.7196   -5.2109 N   0  0  0  0  0  0  0  0  0  0  0  0
    0.7964   21.3852   -4.2406 N   0  0  0  0  0  0  0  0  0  0  0  0
    0.8317   19.8272   -5.9416 O   0  0  0  0  0  0  0  0  0  0  0  0
   -1.5710   21.4813   -4.6821 H   0  0  0  0  0  0  0  0  0  0  0  0
    0.1981   22.0377   -3.7578 H   0  0  0  0  0  0  0  0  0  0  0  0
    2.1696   21.4065   -3.8905 C   0  0  0  0  0  0  0  0  0  0  0  0
    3.0771   22.0415   -4.7382 C   0  0  0  0  0  0  0  0  0  0  0  0
    4.8752   21.5696   -3.3824 C   0  0  0  0  0  0  0  0  0  0  0  0
    4.0651   20.9226   -2.4675 C   0  0  0  0  0  0  0  0  0  0  0  0
    2.6966   20.8445   -2.7284 C   0  0  0  0  0  0  0  0  0  0  0  0
    4.4127   22.1365   -4.5161 N   0  0  0  0  0  0  0  0  0  0  0  0
  7  8  1  0  0  0
  8  9  1  0  0  0
  9 10  1  0  0  0
  9  1  1  0  0  0
 10 12  1  0  0  0
 11 12  1  0  0  0
 11  7  1  0  0  0
 14 19  2  0  0  0
 15 20  2  0  0  0
 16 17  1  0  0  0
 16 13  2  0  0  0
 18 21  1  0  0  0
  2  3  2  0  0  0
  3 24  1  0  0  0
  4  5  2  0  0  0
  6  1  2  0  0  0
 23 25  1  0  0  0
 30 34  2  0  0  0
 31 32  2  0  0  0
 33 29  2  0  0  0
 12 13  1  0  0  0
 21 15  1  0  0  0
 24 23  1  0  0  0
 25 29  1  0  0  0
 13 19  1  0  0  0
 14 20  1  0  0  0
 15 16  1  0  0  0
 17 18  2  0  0  0
  1  2  1  0  0  0
  3  4  1  0  0  0
  5  6  1  0  0  0
 23 26  2  0  0  0
 29 30  1  0  0  0
 31 34  1  0  0  0
 32 33  1  0  0  0
 21 22  1  0  0  0
 24 27  1  0  0  0
 25 28  1  0  0  0
M  END
> <minimizedAffinity>
-10.04481

$$$$
CHEMBL4468002


 34 38  0  0  0  0  0  0  0  0999 V2000
   -2.5902   17.8725   -6.1167 C   0  0  0  0  0  0  0  0  0  0  0  0
   -3.5343   17.5196   -7.1026 C   0  0  0  0  0  0  0  0  0  0  0  0
   -4.7489   16.9019   -6.7662 C   0  0  0  0  0  0  0  0  0  0  0  0
   -4.9962   16.6076   -5.4247 C   0  0  0  0  0  0  0  0  0  0  0  0
   -4.0670   16.9381   -4.4377 C   0  0  0  0  0  0  0  0  0  0  0  0
   -2.8745   17.5682   -4.7795 C   0  0  0  0  0  0  0  0  0  0  0  0
    0.2534   20.2119   -5.2534 C   0  0  0  0  0  0  0  0  0  0  0  0
   -1.1751   19.9493   -5.7227 C   0  0  0  0  0  0  0  0  0  0  0  0
   -1.2915   18.5963   -6.4541 C   0  0  0  0  0  0  0  0  0  0  0  0
   -0.0409   17.7029   -6.2706 C   0  0  0  0  0  0  0  0  0  0  0  0
    0.7118   19.0894   -4.3201 C   0  0  0  0  0  0  0  0  0  0  0  0
    0.4657   17.7743   -4.8953 N   0  0  0  0  0  0  0  0  0  0  0  0
    0.6998   16.5945   -4.2052 C   0  0  0  0  0  0  0  0  0  0  0  0
    2.0870   15.4266   -2.7027 C   0  0  0  0  0  0  0  0  0  0  0  0
    0.4286   14.2899   -3.6090 C   0  0  0  0  0  0  0  0  0  0  0  0
   -0.0318   15.3839   -4.3346 C   0  0  0  0  0  0  0  0  0  0  0  0
   -1.1729   14.9056   -5.0531 C   0  0  0  0  0  0  0  0  0  0  0  0
   -1.3488   13.5695   -4.7597 C   0  0  0  0  0  0  0  0  0  0  0  0
    1.7630   16.5588   -3.3496 N   0  0  0  0  0  0  0  0  0  0  0  0
    1.4792   14.2388   -2.7814 N   0  0  0  0  0  0  0  0  0  0  0  0
   -0.3701   13.2127   -3.8744 N   0  0  0  0  0  0  0  0  0  0  0  0
   -0.2314   12.3010   -3.4632 H   0  0  0  0  0  0  0  0  0  0  0  0
   -6.6035   17.4546   -8.3552 C   0  0  0  0  0  0  0  0  0  0  0  0
   -5.6548   16.5997   -7.8134 N   0  0  0  0  0  0  0  0  0  0  0  0
   -7.4290   16.8002   -9.2567 N   0  0  0  0  0  0  0  0  0  0  0  0
   -6.7090   18.6440   -8.0716 O   0  0  0  0  0  0  0  0  0  0  0  0
   -5.5474   15.6913   -8.2374 H   0  0  0  0  0  0  0  0  0  0  0  0
   -7.1889   15.8495   -9.4921 H   0  0  0  0  0  0  0  0  0  0  0  0
   -8.5640   17.3463   -9.9065 C   0  0  0  0  0  0  0  0  0  0  0  0
   -9.8374   17.0011   -9.4541 C   0  0  0  0  0  0  0  0  0  0  0  0
  -10.8936   18.3103  -11.0240 C   0  0  0  0  0  0  0  0  0  0  0  0
   -9.6834   18.7265  -11.5478 C   0  0  0  0  0  0  0  0  0  0  0  0
   -8.5077   18.2372  -10.9775 C   0  0  0  0  0  0  0  0  0  0  0  0
  -11.0007   17.4574   -9.9840 N   0  0  0  0  0  0  0  0  0  0  0  0
  7  8  1  0  0  0
  8  9  1  0  0  0
  9 10  1  0  0  0
  9  1  1  0  0  0
 10 12  1  0  0  0
 11 12  1  0  0  0
 11  7  1  0  0  0
 14 19  2  0  0  0
 15 20  2  0  0  0
 16 17  1  0  0  0
 16 13  2  0  0  0
 18 21  1  0  0  0
  2  3  2  0  0  0
  3 24  1  0  0  0
  4  5  2  0  0  0
  6  1  2  0  0  0
 23 25  1  0  0  0
 30 34  2  0  0  0
 31 32  2  0  0  0
 33 29  2  0  0  0
 12 13  1  0  0  0
 21 15  1  0  0  0
 24 23  1  0  0  0
 25 29  1  0  0  0
 13 19  1  0  0  0
 14 20  1  0  0  0
 15 16  1  0  0  0
 17 18  2  0  0  0
  1  2  1  0  0  0
  3  4  1  0  0  0
  5  6  1  0  0  0
 23 26  2  0  0  0
 29 30  1  0  0  0
 31 34  1  0  0  0
 32 33  1  0  0  0
 21 22  1  0  0  0
 24 27  1  0  0  0
 25 28  1  0  0  0
M  END
> <minimizedAffinity>
-10.01351

$$$$
CHEMBL4468002


 34 38  0  0  0  0  0  0  0  0999 V2000
   -2.4133   15.2802   -5.5052 C   0  0  0  0  0  0  0  0  0  0  0  0
   -3.3049   16.3546   -5.7021 C   0  0  0  0  0  0  0  0  0  0  0  0
   -3.9407   16.5622   -6.9360 C   0  0  0  0  0  0  0  0  0  0  0  0
   -3.6465   15.6961   -7.9899 C   0  0  0  0  0  0  0  0  0  0  0  0
   -2.7567   14.6356   -7.8160 C   0  0  0  0  0  0  0  0  0  0  0  0
   -2.1465   14.4266   -6.5831 C   0  0  0  0  0  0  0  0  0  0  0  0
    0.5580   14.3287   -3.3674 C   0  0  0  0  0  0  0  0  0  0  0  0
   -0.6194   13.9670   -4.2689 C   0  0  0  0  0  0  0  0  0  0  0  0
   -1.7573   15.0022   -4.1573 C   0  0  0  0  0  0  0  0  0  0  0  0
   -1.3264   16.2940   -3.4214 C   0  0  0  0  0  0  0  0  0  0  0  0
    1.0936   15.7135   -3.7373 C   0  0  0  0  0  0  0  0  0  0  0  0
    0.0272   16.7024   -3.8138 N   0  0  0  0  0  0  0  0  0  0  0  0
    0.2395   18.0086   -4.2285 C   0  0  0  0  0  0  0  0  0  0  0  0
   -0.2995   19.7036   -5.7719 C   0  0  0  0  0  0  0  0  0  0  0  0
    1.3043   20.1525   -4.3261 C   0  0  0  0  0  0  0  0  0  0  0  0
    1.1996   18.9136   -3.7023 C   0  0  0  0  0  0  0  0  0  0  0  0
    2.1790   18.9333   -2.6595 C   0  0  0  0  0  0  0  0  0  0  0  0
    2.8380   20.1442   -2.6982 C   0  0  0  0  0  0  0  0  0  0  0  0
   -0.5037   18.4717   -5.2758 N   0  0  0  0  0  0  0  0  0  0  0  0
    0.5937   20.6103   -5.3638 N   0  0  0  0  0  0  0  0  0  0  0  0
    2.2887   20.8767   -3.7135 N   0  0  0  0  0  0  0  0  0  0  0  0
    2.5498   21.8111   -3.9934 H   0  0  0  0  0  0  0  0  0  0  0  0
   -4.5035   18.9833   -7.2386 C   0  0  0  0  0  0  0  0  0  0  0  0
   -4.8407   17.6514   -7.0464 N   0  0  0  0  0  0  0  0  0  0  0  0
   -5.6118   19.8115   -7.1483 N   0  0  0  0  0  0  0  0  0  0  0  0
   -3.3652   19.3870   -7.4562 O   0  0  0  0  0  0  0  0  0  0  0  0
   -5.8203   17.4127   -7.0438 H   0  0  0  0  0  0  0  0  0  0  0  0
   -6.5127   19.3655   -7.0694 H   0  0  0  0  0  0  0  0  0  0  0  0
   -5.6076   21.2283   -7.1866 C   0  0  0  0  0  0  0  0  0  0  0  0
   -5.4673   21.8743   -8.4148 C   0  0  0  0  0  0  0  0  0  0  0  0
   -5.5893   23.9709   -7.4748 C   0  0  0  0  0  0  0  0  0  0  0  0
   -5.7434   23.4368   -6.2087 C   0  0  0  0  0  0  0  0  0  0  0  0
   -5.7538   22.0486   -6.0686 C   0  0  0  0  0  0  0  0  0  0  0  0
   -5.4531   23.2204   -8.5879 N   0  0  0  0  0  0  0  0  0  0  0  0
  7  8  1  0  0  0
  8  9  1  0  0  0
  9 10  1  0  0  0
  9  1  1  0  0  0
 10 12  1  0  0  0
 11 12  1  0  0  0
 11  7  1  0  0  0
 14 19  2  0  0  0
 15 20  2  0  0  0
 16 17  1  0  0  0
 16 13  2  0  0  0
 18 21  1  0  0  0
  2  3  2  0  0  0
  3 24  1  0  0  0
  4  5  2  0  0  0
  6  1  2  0  0  0
 23 25  1  0  0  0
 30 34  2  0  0  0
 31 32  2  0  0  0
 33 29  2  0  0  0
 12 13  1  0  0  0
 21 15  1  0  0  0
 24 23  1  0  0  0
 25 29  1  0  0  0
 13 19  1  0  0  0
 14 20  1  0  0  0
 15 16  1  0  0  0
 17 18  2  0  0  0
  1  2  1  0  0  0
  3  4  1  0  0  0
  5  6  1  0  0  0
 23 26  2  0  0  0
 29 30  1  0  0  0
 31 34  1  0  0  0
 32 33  1  0  0  0
 21 22  1  0  0  0
 24 27  1  0  0  0
 25 28  1  0  0  0
M  END
> <minimizedAffinity>
-9.81284

$$$$
CHEMBL4468002


 34 38  0  0  0  0  0  0  0  0999 V2000
   -0.9891   20.7999   -5.8715 C   0  0  0  0  0  0  0  0  0  0  0  0
   -1.6067   19.6102   -6.3088 C   0  0  0  0  0  0  0  0  0  0  0  0
   -2.9180   19.6066   -6.8091 C   0  0  0  0  0  0  0  0  0  0  0  0
   -3.6230   20.8106   -6.8359 C   0  0  0  0  0  0  0  0  0  0  0  0
   -3.0315   21.9948   -6.3948 C   0  0  0  0  0  0  0  0  0  0  0  0
   -1.7241   21.9912   -5.9189 C   0  0  0  0  0  0  0  0  0  0  0  0
    1.6001   21.0345   -3.1247 C   0  0  0  0  0  0  0  0  0  0  0  0
    0.6061   21.6716   -4.0922 C   0  0  0  0  0  0  0  0  0  0  0  0
    0.4534   20.8359   -5.3795 C   0  0  0  0  0  0  0  0  0  0  0  0
    1.0829   19.4268   -5.2611 C   0  0  0  0  0  0  0  0  0  0  0  0
    1.1424   19.6205   -2.7606 C   0  0  0  0  0  0  0  0  0  0  0  0
    0.8187   18.8360   -3.9442 N   0  0  0  0  0  0  0  0  0  0  0  0
    0.2854   17.5576   -3.8778 C   0  0  0  0  0  0  0  0  0  0  0  0
   -1.6510   16.2191   -3.9424 C   0  0  0  0  0  0  0  0  0  0  0  0
    0.2472   15.1952   -3.4812 C   0  0  0  0  0  0  0  0  0  0  0  0
    0.9957   16.3632   -3.5836 C   0  0  0  0  0  0  0  0  0  0  0  0
    2.3459   15.9691   -3.3216 C   0  0  0  0  0  0  0  0  0  0  0  0
    2.3656   14.6153   -3.0588 C   0  0  0  0  0  0  0  0  0  0  0  0
   -1.0602   17.4198   -4.0623 N   0  0  0  0  0  0  0  0  0  0  0  0
   -1.0737   15.0515   -3.6427 N   0  0  0  0  0  0  0  0  0  0  0  0
    1.0814   14.1589   -3.1669 N   0  0  0  0  0  0  0  0  0  0  0  0
    0.7659   13.2083   -3.0385 H   0  0  0  0  0  0  0  0  0  0  0  0
   -4.1382   17.4460   -6.4730 C   0  0  0  0  0  0  0  0  0  0  0  0
   -3.4591   18.3731   -7.2500 N   0  0  0  0  0  0  0  0  0  0  0  0
   -4.3992   16.2798   -7.1761 N   0  0  0  0  0  0  0  0  0  0  0  0
   -4.4658   17.6265   -5.3042 O   0  0  0  0  0  0  0  0  0  0  0  0
   -3.3893   18.1925   -8.2395 H   0  0  0  0  0  0  0  0  0  0  0  0
   -4.1777   16.2778   -8.1599 H   0  0  0  0  0  0  0  0  0  0  0  0
   -4.9769   15.0954   -6.6546 C   0  0  0  0  0  0  0  0  0  0  0  0
   -6.3229   15.1000   -6.2888 C   0  0  0  0  0  0  0  0  0  0  0  0
   -6.2888   12.8940   -5.6357 C   0  0  0  0  0  0  0  0  0  0  0  0
   -4.9532   12.7743   -5.9734 C   0  0  0  0  0  0  0  0  0  0  0  0
   -4.2947   13.8905   -6.4902 C   0  0  0  0  0  0  0  0  0  0  0  0
   -6.9948   14.0343   -5.7838 N   0  0  0  0  0  0  0  0  0  0  0  0
  7  8  1  0  0  0
  8  9  1  0  0  0
  9 10  1  0  0  0
  9  1  1  0  0  0
 10 12  1  0  0  0
 11 12  1  0  0  0
 11  7  1  0  0  0
 14 19  2  0  0  0
 15 20  2  0  0  0
 16 17  1  0  0  0
 16 13  2  0  0  0
 18 21  1  0  0  0
  2  3  2  0  0  0
  3 24  1  0  0  0
  4  5  2  0  0  0
  6  1  2  0  0  0
 23 25  1  0  0  0
 30 34  2  0  0  0
 31 32  2  0  0  0
 33 29  2  0  0  0
 12 13  1  0  0  0
 21 15  1  0  0  0
 24 23  1  0  0  0
 25 29  1  0  0  0
 13 19  1  0  0  0
 14 20  1  0  0  0
 15 16  1  0  0  0
 17 18  2  0  0  0
  1  2  1  0  0  0
  3  4  1  0  0  0
  5  6  1  0  0  0
 23 26  2  0  0  0
 29 30  1  0  0  0
 31 34  1  0  0  0
 32 33  1  0  0  0
 21 22  1  0  0  0
 24 27  1  0  0  0
 25 28  1  0  0  0
M  END
> <minimizedAffinity>
-9.72837

$$$$
CHEMBL4468002


 34 38  0  0  0  0  0  0  0  0999 V2000
   -2.3398   18.3792   -6.6465 C   0  0  0  0  0  0  0  0  0  0  0  0
   -3.3377   18.2624   -7.6358 C   0  0  0  0  0  0  0  0  0  0  0  0
   -4.2267   19.3139   -7.9073 C   0  0  0  0  0  0  0  0  0  0  0  0
   -4.1280   20.4810   -7.1487 C   0  0  0  0  0  0  0  0  0  0  0  0
   -3.1549   20.6083   -6.1570 C   0  0  0  0  0  0  0  0  0  0  0  0
   -2.2655   19.5675   -5.9089 C   0  0  0  0  0  0  0  0  0  0  0  0
   -0.5492   15.9801   -4.3353 C   0  0  0  0  0  0  0  0  0  0  0  0
   -0.7353   17.3628   -4.9544 C   0  0  0  0  0  0  0  0  0  0  0  0
   -1.3272   17.2721   -6.3758 C   0  0  0  0  0  0  0  0  0  0  0  0
   -1.8734   15.8633   -6.7121 C   0  0  0  0  0  0  0  0  0  0  0  0
   -1.8910   15.2468   -4.2804 C   0  0  0  0  0  0  0  0  0  0  0  0
   -2.5769   15.2787   -5.5648 N   0  0  0  0  0  0  0  0  0  0  0  0
   -3.8545   14.7720   -5.7492 C   0  0  0  0  0  0  0  0  0  0  0  0
   -6.1516   15.2392   -5.9740 C   0  0  0  0  0  0  0  0  0  0  0  0
   -5.5760   13.1118   -5.8915 C   0  0  0  0  0  0  0  0  0  0  0  0
   -4.2194   13.3996   -5.7823 C   0  0  0  0  0  0  0  0  0  0  0  0
   -3.5692   12.1270   -5.7129 C   0  0  0  0  0  0  0  0  0  0  0  0
   -4.5302   11.1390   -5.7629 C   0  0  0  0  0  0  0  0  0  0  0  0
   -4.8818   15.6639   -5.8632 N   0  0  0  0  0  0  0  0  0  0  0  0
   -6.5924   13.9775   -5.9862 N   0  0  0  0  0  0  0  0  0  0  0  0
   -5.7450   11.7554   -5.8785 N   0  0  0  0  0  0  0  0  0  0  0  0
   -6.6464   11.3051   -5.9446 H   0  0  0  0  0  0  0  0  0  0  0  0
   -6.4920   18.6858   -8.7700 C   0  0  0  0  0  0  0  0  0  0  0  0
   -5.1866   19.1263   -8.9330 N   0  0  0  0  0  0  0  0  0  0  0  0
   -7.1152   18.4650   -9.9887 N   0  0  0  0  0  0  0  0  0  0  0  0
   -7.0335   18.5057   -7.6835 O   0  0  0  0  0  0  0  0  0  0  0  0
   -4.8980   19.4011   -9.8591 H   0  0  0  0  0  0  0  0  0  0  0  0
   -6.6131   18.7431  -10.8178 H   0  0  0  0  0  0  0  0  0  0  0  0
   -8.4057   17.9129  -10.1850 C   0  0  0  0  0  0  0  0  0  0  0  0
   -9.2145   18.4207  -11.2015 C   0  0  0  0  0  0  0  0  0  0  0  0
  -10.9370   16.9679  -10.7366 C   0  0  0  0  0  0  0  0  0  0  0  0
  -10.2189   16.3838   -9.7093 C   0  0  0  0  0  0  0  0  0  0  0  0
   -8.9379   16.8644   -9.4356 C   0  0  0  0  0  0  0  0  0  0  0  0
  -10.4633   17.9780  -11.4955 N   0  0  0  0  0  0  0  0  0  0  0  0
  7  8  1  0  0  0
  8  9  1  0  0  0
  9 10  1  0  0  0
  9  1  1  0  0  0
 10 12  1  0  0  0
 11 12  1  0  0  0
 11  7  1  0  0  0
 14 19  2  0  0  0
 15 20  2  0  0  0
 16 17  1  0  0  0
 16 13  2  0  0  0
 18 21  1  0  0  0
  2  3  2  0  0  0
  3 24  1  0  0  0
  4  5  2  0  0  0
  6  1  2  0  0  0
 23 25  1  0  0  0
 30 34  2  0  0  0
 31 32  2  0  0  0
 33 29  2  0  0  0
 12 13  1  0  0  0
 21 15  1  0  0  0
 24 23  1  0  0  0
 25 29  1  0  0  0
 13 19  1  0  0  0
 14 20  1  0  0  0
 15 16  1  0  0  0
 17 18  2  0  0  0
  1  2  1  0  0  0
  3  4  1  0  0  0
  5  6  1  0  0  0
 23 26  2  0  0  0
 29 30  1  0  0  0
 31 34  1  0  0  0
 32 33  1  0  0  0
 21 22  1  0  0  0
 24 27  1  0  0  0
 25 28  1  0  0  0
M  END
> <minimizedAffinity>
-9.51319

$$$$
CHEMBL585734


 37 40  0  0  0  0  0  0  0  0999 V2000
   -1.4712   18.7279   -5.3871 C   0  0  0  0  0  0  0  0  0  0  0  0
   -0.7460   19.6145   -6.0164 N   0  0  0  0  0  0  0  0  0  0  0  0
   -4.9545   19.2252   -6.6511 C   0  0  0  0  0  0  0  0  0  0  0  0
   -3.9092   19.0653   -5.5421 C   0  0  0  0  0  0  0  0  0  0  0  0
   -2.8705   17.1529   -6.8225 C   0  0  0  0  0  0  0  0  0  0  0  0
   -1.5909   16.7271   -7.5692 C   0  0  0  0  0  0  0  0  0  0  0  0
   -3.9793   17.3546   -7.8953 C   0  0  0  0  0  0  0  0  0  0  0  0
   -5.1941   17.9665   -7.3542 N   0  0  0  0  0  0  0  0  0  0  0  0
   -2.6725   18.3650   -5.9785 N   0  0  0  0  0  0  0  0  0  0  0  0
   -7.4362   18.3844   -9.8230 C   0  0  0  0  0  0  0  0  0  0  0  0
   -7.9755   17.3613   -8.8883 C   0  0  0  0  0  0  0  0  0  0  0  0
   -9.1818   16.6991   -9.0415 C   0  0  0  0  0  0  0  0  0  0  0  0
   -8.3057   16.0092   -7.1018 C   0  0  0  0  0  0  0  0  0  0  0  0
   -7.0841   15.7092   -5.2841 C   0  0  0  0  0  0  0  0  0  0  0  0
   -6.2042   17.1273   -6.9175 C   0  0  0  0  0  0  0  0  0  0  0  0
   -7.3872   16.8875   -7.6607 C   0  0  0  0  0  0  0  0  0  0  0  0
   -9.3673   15.8902   -7.9535 N   0  0  0  0  0  0  0  0  0  0  0  0
   -8.2136   15.3749   -5.9254 N   0  0  0  0  0  0  0  0  0  0  0  0
   -6.0977   16.5293   -5.7004 N   0  0  0  0  0  0  0  0  0  0  0  0
  -10.1717   15.3083   -7.7707 H   0  0  0  0  0  0  0  0  0  0  0  0
    0.4438   19.9497   -5.5125 C   0  0  0  0  0  0  0  0  0  0  0  0
    1.4595   20.2339   -5.0346 N   0  0  0  0  0  0  0  0  0  0  0  0
   -1.1007   18.0720   -4.2283 N   0  0  0  0  0  0  0  0  0  0  0  0
   -1.5691   18.3618   -3.3755 H   0  0  0  0  0  0  0  0  0  0  0  0
   -0.4066   16.8532   -4.0639 C   0  0  0  0  0  0  0  0  0  0  0  0
    0.9467   16.7863   -3.7262 C   0  0  0  0  0  0  0  0  0  0  0  0
    1.5721   15.5749   -3.4397 C   0  0  0  0  0  0  0  0  0  0  0  0
    0.8571   14.3857   -3.5272 C   0  0  0  0  0  0  0  0  0  0  0  0
   -0.4847   14.4038   -3.9219 C   0  0  0  0  0  0  0  0  0  0  0  0
   -1.1100   15.6423   -4.1689 C   0  0  0  0  0  0  0  0  0  0  0  0
   -1.2966   13.1573   -4.0839 C   0  0  0  0  0  0  0  0  0  0  0  0
   -2.3813   13.2078   -4.9397 N   0  0  0  0  0  0  0  0  0  0  0  0
   -0.9981   12.1493   -3.4509 O   0  0  0  0  0  0  0  0  0  0  0  0
   -2.6486   14.0705   -5.3845 H   0  0  0  0  0  0  0  0  0  0  0  0
   -3.2558   12.0615   -5.1423 C   0  0  0  0  0  0  0  0  0  0  0  0
   -2.5525   11.0185   -6.0082 C   0  0  0  0  0  0  0  0  0  0  0  0
   -4.5702   12.4954   -5.7879 C   0  0  0  0  0  0  0  0  0  0  0  0
 10 11  1  0  0  0
 12 17  1  0  0  0
 14 18  2  0  0  0
 15 19  2  0  0  0
 15  8  1  0  0  0
  3  8  1  0  0  0
  3  4  1  0  0  0
  4  9  1  0  0  0
  1 23  1  0  0  0
 26 27  2  0  0  0
 28 29  2  0  0  0
 29 31  1  0  0  0
 31 32  1  0  0  0
 35 32  1  0  0  0
 35 36  1  0  0  0
 35 37  1  0  0  0
 30 25  2  0  0  0
  5  9  1  0  0  0
  5  6  1  0  0  0
  5  7  1  0  0  0
  7  8  1  0  0  0
 16 11  1  0  0  0
 16 13  2  0  0  0
 17 13  1  0  0  0
  9  1  1  0  0  0
  2 21  1  0  0  0
 23 25  1  0  0  0
 11 12  2  0  0  0
 13 18  1  0  0  0
 14 19  1  0  0  0
 15 16  1  0  0  0
  1  2  2  0  0  0
 25 26  1  0  0  0
 27 28  1  0  0  0
 29 30  1  0  0  0
 31 33  2  0  0  0
 21 22  3  0  0  0
 17 20  1  0  0  0
 23 24  1  0  0  0
 32 34  1  0  0  0
M  END
> <minimizedAffinity>
-9.79370

$$$$
CHEMBL585734


 37 40  0  0  0  0  0  0  0  0999 V2000
   -3.2585   18.6169   -6.7553 C   0  0  0  0  0  0  0  0  0  0  0  0
   -2.4598   19.4219   -7.4051 N   0  0  0  0  0  0  0  0  0  0  0  0
   -2.4872   16.5460   -3.7396 C   0  0  0  0  0  0  0  0  0  0  0  0
   -2.3803   17.8122   -4.5960 C   0  0  0  0  0  0  0  0  0  0  0  0
   -2.0490   16.3754   -6.6457 C   0  0  0  0  0  0  0  0  0  0  0  0
   -2.6999   15.9801   -7.9859 C   0  0  0  0  0  0  0  0  0  0  0  0
   -2.1393   15.1349   -5.7108 C   0  0  0  0  0  0  0  0  0  0  0  0
   -1.7517   15.4296   -4.3303 N   0  0  0  0  0  0  0  0  0  0  0  0
   -2.6655   17.5882   -6.0378 N   0  0  0  0  0  0  0  0  0  0  0  0
   -1.6987   12.0727   -4.1743 C   0  0  0  0  0  0  0  0  0  0  0  0
   -0.3192   12.5612   -3.9109 C   0  0  0  0  0  0  0  0  0  0  0  0
    0.7790   11.7541   -3.6666 C   0  0  0  0  0  0  0  0  0  0  0  0
    1.4757   13.8715   -3.4745 C   0  0  0  0  0  0  0  0  0  0  0  0
    1.6461   16.0708   -3.3320 C   0  0  0  0  0  0  0  0  0  0  0  0
   -0.4331   15.2184   -3.9675 C   0  0  0  0  0  0  0  0  0  0  0  0
    0.1350   13.9268   -3.8306 C   0  0  0  0  0  0  0  0  0  0  0  0
    1.8524   12.5602   -3.4018 N   0  0  0  0  0  0  0  0  0  0  0  0
    2.2942   14.9018   -3.2229 N   0  0  0  0  0  0  0  0  0  0  0  0
    0.3609   16.2849   -3.6803 N   0  0  0  0  0  0  0  0  0  0  0  0
    2.7833   12.2559   -3.1570 H   0  0  0  0  0  0  0  0  0  0  0  0
   -2.9840   20.4594   -8.0613 C   0  0  0  0  0  0  0  0  0  0  0  0
   -3.4772   21.3372   -8.6331 N   0  0  0  0  0  0  0  0  0  0  0  0
   -4.6306   18.7568   -6.6647 N   0  0  0  0  0  0  0  0  0  0  0  0
   -5.0095   19.6653   -6.9130 H   0  0  0  0  0  0  0  0  0  0  0  0
   -5.6351   17.7675   -6.5842 C   0  0  0  0  0  0  0  0  0  0  0  0
   -5.7336   16.8660   -5.5224 C   0  0  0  0  0  0  0  0  0  0  0  0
   -6.8101   15.9901   -5.4014 C   0  0  0  0  0  0  0  0  0  0  0  0
   -7.8020   15.9691   -6.3755 C   0  0  0  0  0  0  0  0  0  0  0  0
   -7.7088   16.8133   -7.4869 C   0  0  0  0  0  0  0  0  0  0  0  0
   -6.6331   17.7198   -7.5709 C   0  0  0  0  0  0  0  0  0  0  0  0
   -8.7149   16.8056   -8.5946 C   0  0  0  0  0  0  0  0  0  0  0  0
   -8.8598   17.9645   -9.3344 N   0  0  0  0  0  0  0  0  0  0  0  0
   -9.3863   15.7994   -8.8007 O   0  0  0  0  0  0  0  0  0  0  0  0
   -8.3518   18.7992   -9.0917 H   0  0  0  0  0  0  0  0  0  0  0  0
   -9.8337   18.0735  -10.4111 C   0  0  0  0  0  0  0  0  0  0  0  0
   -9.2416   18.8760  -11.5677 C   0  0  0  0  0  0  0  0  0  0  0  0
  -11.1196   18.7270   -9.9089 C   0  0  0  0  0  0  0  0  0  0  0  0
 10 11  1  0  0  0
 12 17  1  0  0  0
 14 18  2  0  0  0
 15 19  2  0  0  0
 15  8  1  0  0  0
  3  8  1  0  0  0
  3  4  1  0  0  0
  4  9  1  0  0  0
  1 23  1  0  0  0
 26 27  2  0  0  0
 28 29  2  0  0  0
 29 31  1  0  0  0
 31 32  1  0  0  0
 35 32  1  0  0  0
 35 36  1  0  0  0
 35 37  1  0  0  0
 30 25  2  0  0  0
  5  9  1  0  0  0
  5  6  1  0  0  0
  5  7  1  0  0  0
  7  8  1  0  0  0
 16 11  1  0  0  0
 16 13  2  0  0  0
 17 13  1  0  0  0
  9  1  1  0  0  0
  2 21  1  0  0  0
 23 25  1  0  0  0
 11 12  2  0  0  0
 13 18  1  0  0  0
 14 19  1  0  0  0
 15 16  1  0  0  0
  1  2  2  0  0  0
 25 26  1  0  0  0
 27 28  1  0  0  0
 29 30  1  0  0  0
 31 33  2  0  0  0
 21 22  3  0  0  0
 17 20  1  0  0  0
 23 24  1  0  0  0
 32 34  1  0  0  0
M  END
> <minimizedAffinity>
-9.42685

$$$$
CHEMBL585734


 37 40  0  0  0  0  0  0  0  0999 V2000
   -2.8167   18.8879   -6.3468 C   0  0  0  0  0  0  0  0  0  0  0  0
   -3.7582   19.7853   -6.2192 N   0  0  0  0  0  0  0  0  0  0  0  0
   -3.4579   15.4342   -7.6270 C   0  0  0  0  0  0  0  0  0  0  0  0
   -3.7764   16.9271   -7.4939 C   0  0  0  0  0  0  0  0  0  0  0  0
   -3.3391   16.7801   -5.0114 C   0  0  0  0  0  0  0  0  0  0  0  0
   -2.3889   17.2708   -3.9012 C   0  0  0  0  0  0  0  0  0  0  0  0
   -3.0566   15.2639   -5.2170 C   0  0  0  0  0  0  0  0  0  0  0  0
   -3.7362   14.7092   -6.3888 N   0  0  0  0  0  0  0  0  0  0  0  0
   -3.2033   17.5575   -6.2755 N   0  0  0  0  0  0  0  0  0  0  0  0
   -2.8536   11.5057   -5.8840 C   0  0  0  0  0  0  0  0  0  0  0  0
   -4.3282   11.6018   -5.7182 C   0  0  0  0  0  0  0  0  0  0  0  0
   -5.1641   10.5467   -5.3939 C   0  0  0  0  0  0  0  0  0  0  0  0
   -6.4712   12.3340   -5.7142 C   0  0  0  0  0  0  0  0  0  0  0  0
   -7.3091   14.3224   -6.1945 C   0  0  0  0  0  0  0  0  0  0  0  0
   -4.9815   14.1342   -6.2049 C   0  0  0  0  0  0  0  0  0  0  0  0
   -5.1626   12.7655   -5.8832 C   0  0  0  0  0  0  0  0  0  0  0  0
   -6.4535   11.0047   -5.3993 N   0  0  0  0  0  0  0  0  0  0  0  0
   -7.5903   13.0594   -5.8416 N   0  0  0  0  0  0  0  0  0  0  0  0
   -6.0995   14.8890   -6.3803 N   0  0  0  0  0  0  0  0  0  0  0  0
   -7.2840   10.4564   -5.2300 H   0  0  0  0  0  0  0  0  0  0  0  0
   -3.4396   21.0760   -6.3392 C   0  0  0  0  0  0  0  0  0  0  0  0
   -3.1220   22.1858   -6.4298 N   0  0  0  0  0  0  0  0  0  0  0  0
   -1.4897   19.1582   -6.6233 N   0  0  0  0  0  0  0  0  0  0  0  0
   -1.2837   19.5044   -7.5552 H   0  0  0  0  0  0  0  0  0  0  0  0
   -0.4014   19.3329   -5.7405 C   0  0  0  0  0  0  0  0  0  0  0  0
    0.1648   20.5795   -5.4660 C   0  0  0  0  0  0  0  0  0  0  0  0
    1.1476   20.7401   -4.4917 C   0  0  0  0  0  0  0  0  0  0  0  0
    1.6200   19.6353   -3.7922 C   0  0  0  0  0  0  0  0  0  0  0  0
    1.1228   18.3600   -4.0804 C   0  0  0  0  0  0  0  0  0  0  0  0
    0.1009   18.2236   -5.0411 C   0  0  0  0  0  0  0  0  0  0  0  0
    1.6231   17.1246   -3.4003 C   0  0  0  0  0  0  0  0  0  0  0  0
    0.9736   15.9357   -3.6762 N   0  0  0  0  0  0  0  0  0  0  0  0
    2.5637   17.1995   -2.6157 O   0  0  0  0  0  0  0  0  0  0  0  0
    0.1555   15.9179   -4.2626 H   0  0  0  0  0  0  0  0  0  0  0  0
    1.3590   14.6831   -3.0419 C   0  0  0  0  0  0  0  0  0  0  0  0
    2.6387   14.1492   -3.6818 C   0  0  0  0  0  0  0  0  0  0  0  0
    0.2349   13.6552   -3.1545 C   0  0  0  0  0  0  0  0  0  0  0  0
 10 11  1  0  0  0
 12 17  1  0  0  0
 14 18  2  0  0  0
 15 19  2  0  0  0
 15  8  1  0  0  0
  3  8  1  0  0  0
  3  4  1  0  0  0
  4  9  1  0  0  0
  1 23  1  0  0  0
 26 27  2  0  0  0
 28 29  2  0  0  0
 29 31  1  0  0  0
 31 32  1  0  0  0
 35 32  1  0  0  0
 35 36  1  0  0  0
 35 37  1  0  0  0
 30 25  2  0  0  0
  5  9  1  0  0  0
  5  6  1  0  0  0
  5  7  1  0  0  0
  7  8  1  0  0  0
 16 11  1  0  0  0
 16 13  2  0  0  0
 17 13  1  0  0  0
  9  1  1  0  0  0
  2 21  1  0  0  0
 23 25  1  0  0  0
 11 12  2  0  0  0
 13 18  1  0  0  0
 14 19  1  0  0  0
 15 16  1  0  0  0
  1  2  2  0  0  0
 25 26  1  0  0  0
 27 28  1  0  0  0
 29 30  1  0  0  0
 31 33  2  0  0  0
 21 22  3  0  0  0
 17 20  1  0  0  0
 23 24  1  0  0  0
 32 34  1  0  0  0
M  END
> <minimizedAffinity>
-9.33102

$$$$
CHEMBL585734


 37 40  0  0  0  0  0  0  0  0999 V2000
   -4.4445   17.5043   -7.1602 C   0  0  0  0  0  0  0  0  0  0  0  0
   -5.5624   16.8320   -7.2394 N   0  0  0  0  0  0  0  0  0  0  0  0
   -2.8895   16.3114   -3.9763 C   0  0  0  0  0  0  0  0  0  0  0  0
   -3.4003   17.3978   -4.9286 C   0  0  0  0  0  0  0  0  0  0  0  0
   -2.2638   16.2203   -6.8515 C   0  0  0  0  0  0  0  0  0  0  0  0
   -2.5430   15.4673   -8.1673 C   0  0  0  0  0  0  0  0  0  0  0  0
   -1.7565   15.1691   -5.8227 C   0  0  0  0  0  0  0  0  0  0  0  0
   -1.6533   15.7025   -4.4634 N   0  0  0  0  0  0  0  0  0  0  0  0
   -3.4487   16.9740   -6.3529 N   0  0  0  0  0  0  0  0  0  0  0  0
   -0.0357   12.8803   -3.6181 C   0  0  0  0  0  0  0  0  0  0  0  0
    0.9140   14.0132   -3.4580 C   0  0  0  0  0  0  0  0  0  0  0  0
    2.2320   13.8966   -3.0500 C   0  0  0  0  0  0  0  0  0  0  0  0
    1.8213   16.0820   -3.2974 C   0  0  0  0  0  0  0  0  0  0  0  0
    0.9162   18.0741   -3.6113 C   0  0  0  0  0  0  0  0  0  0  0  0
   -0.4361   16.2243   -4.0618 C   0  0  0  0  0  0  0  0  0  0  0  0
    0.6578   15.4171   -3.6602 C   0  0  0  0  0  0  0  0  0  0  0  0
    2.7635   15.1539   -2.9548 N   0  0  0  0  0  0  0  0  0  0  0  0
    2.0250   17.4056   -3.2619 N   0  0  0  0  0  0  0  0  0  0  0  0
   -0.2746   17.5735   -3.9991 N   0  0  0  0  0  0  0  0  0  0  0  0
    3.6973   15.3873   -2.6505 H   0  0  0  0  0  0  0  0  0  0  0  0
   -6.5258   17.2757   -8.0499 C   0  0  0  0  0  0  0  0  0  0  0  0
   -7.3304   17.6811   -8.7772 N   0  0  0  0  0  0  0  0  0  0  0  0
   -4.1515   18.6512   -7.8737 N   0  0  0  0  0  0  0  0  0  0  0  0
   -4.1990   18.5787   -8.8852 H   0  0  0  0  0  0  0  0  0  0  0  0
   -4.0973   19.9943   -7.4406 C   0  0  0  0  0  0  0  0  0  0  0  0
   -5.2204   20.8222   -7.3825 C   0  0  0  0  0  0  0  0  0  0  0  0
   -5.1628   22.0981   -6.8262 C   0  0  0  0  0  0  0  0  0  0  0  0
   -3.9551   22.5943   -6.3483 C   0  0  0  0  0  0  0  0  0  0  0  0
   -2.7940   21.8202   -6.4441 C   0  0  0  0  0  0  0  0  0  0  0  0
   -2.8806   20.5171   -6.9736 C   0  0  0  0  0  0  0  0  0  0  0  0
   -1.4544   22.3132   -5.9950 C   0  0  0  0  0  0  0  0  0  0  0  0
   -0.7916   21.5748   -5.0322 N   0  0  0  0  0  0  0  0  0  0  0  0
   -0.9969   23.3493   -6.4671 O   0  0  0  0  0  0  0  0  0  0  0  0
   -1.2264   20.7728   -4.6061 H   0  0  0  0  0  0  0  0  0  0  0  0
    0.5007   21.9852   -4.5020 C   0  0  0  0  0  0  0  0  0  0  0  0
    1.6086   21.1328   -5.1169 C   0  0  0  0  0  0  0  0  0  0  0  0
    0.5185   21.8692   -2.9791 C   0  0  0  0  0  0  0  0  0  0  0  0
 10 11  1  0  0  0
 12 17  1  0  0  0
 14 18  2  0  0  0
 15 19  2  0  0  0
 15  8  1  0  0  0
  3  8  1  0  0  0
  3  4  1  0  0  0
  4  9  1  0  0  0
  1 23  1  0  0  0
 26 27  2  0  0  0
 28 29  2  0  0  0
 29 31  1  0  0  0
 31 32  1  0  0  0
 35 32  1  0  0  0
 35 36  1  0  0  0
 35 37  1  0  0  0
 30 25  2  0  0  0
  5  9  1  0  0  0
  5  6  1  0  0  0
  5  7  1  0  0  0
  7  8  1  0  0  0
 16 11  1  0  0  0
 16 13  2  0  0  0
 17 13  1  0  0  0
  9  1  1  0  0  0
  2 21  1  0  0  0
 23 25  1  0  0  0
 11 12  2  0  0  0
 13 18  1  0  0  0
 14 19  1  0  0  0
 15 16  1  0  0  0
  1  2  2  0  0  0
 25 26  1  0  0  0
 27 28  1  0  0  0
 29 30  1  0  0  0
 31 33  2  0  0  0
 21 22  3  0  0  0
 17 20  1  0  0  0
 23 24  1  0  0  0
 32 34  1  0  0  0
M  END
> <minimizedAffinity>
-9.31093

$$$$
CHEMBL585734


 37 40  0  0  0  0  0  0  0  0999 V2000
   -2.7781   18.7119   -6.4990 C   0  0  0  0  0  0  0  0  0  0  0  0
   -1.9035   19.3980   -7.1864 N   0  0  0  0  0  0  0  0  0  0  0  0
   -2.1983   16.4574   -3.5734 C   0  0  0  0  0  0  0  0  0  0  0  0
   -1.9439   17.7225   -4.3998 C   0  0  0  0  0  0  0  0  0  0  0  0
   -1.8973   16.3196   -6.4987 C   0  0  0  0  0  0  0  0  0  0  0  0
   -2.6474   16.0634   -7.8208 C   0  0  0  0  0  0  0  0  0  0  0  0
   -2.1288   15.0751   -5.5939 C   0  0  0  0  0  0  0  0  0  0  0  0
   -1.6521   15.2677   -4.2233 N   0  0  0  0  0  0  0  0  0  0  0  0
   -2.3116   17.5874   -5.8340 N   0  0  0  0  0  0  0  0  0  0  0  0
   -2.0562   11.9312   -4.2311 C   0  0  0  0  0  0  0  0  0  0  0  0
   -0.6151   12.2133   -3.9967 C   0  0  0  0  0  0  0  0  0  0  0  0
    0.3687   11.2528   -3.8331 C   0  0  0  0  0  0  0  0  0  0  0  0
    1.3554   13.2430   -3.5657 C   0  0  0  0  0  0  0  0  0  0  0  0
    1.8307   15.3882   -3.3241 C   0  0  0  0  0  0  0  0  0  0  0  0
   -0.3644   14.8606   -3.9210 C   0  0  0  0  0  0  0  0  0  0  0  0
    0.0247   13.4985   -3.8679 C   0  0  0  0  0  0  0  0  0  0  0  0
    1.5504   11.8908   -3.5704 N   0  0  0  0  0  0  0  0  0  0  0  0
    2.3151   14.1379   -3.2958 N   0  0  0  0  0  0  0  0  0  0  0  0
    0.5771   15.7929   -3.6130 N   0  0  0  0  0  0  0  0  0  0  0  0
    2.4377   11.4505   -3.3759 H   0  0  0  0  0  0  0  0  0  0  0  0
   -2.2972   20.5193   -7.7944 C   0  0  0  0  0  0  0  0  0  0  0  0
   -2.6790   21.4740   -8.3270 N   0  0  0  0  0  0  0  0  0  0  0  0
   -4.1036   19.0610   -6.3210 N   0  0  0  0  0  0  0  0  0  0  0  0
   -4.2830   19.8691   -5.7333 H   0  0  0  0  0  0  0  0  0  0  0  0
   -5.2442   18.6803   -7.0613 C   0  0  0  0  0  0  0  0  0  0  0  0
   -5.6548   19.3399   -8.2216 C   0  0  0  0  0  0  0  0  0  0  0  0
   -6.7035   18.8623   -9.0046 C   0  0  0  0  0  0  0  0  0  0  0  0
   -7.3990   17.7233   -8.6152 C   0  0  0  0  0  0  0  0  0  0  0  0
   -7.0589   17.0682   -7.4269 C   0  0  0  0  0  0  0  0  0  0  0  0
   -5.9699   17.5437   -6.6695 C   0  0  0  0  0  0  0  0  0  0  0  0
   -7.7983   15.8678   -6.9254 C   0  0  0  0  0  0  0  0  0  0  0  0
   -7.1716   15.0816   -5.9764 N   0  0  0  0  0  0  0  0  0  0  0  0
   -8.9097   15.6053   -7.3745 O   0  0  0  0  0  0  0  0  0  0  0  0
   -6.2280   15.2771   -5.6850 H   0  0  0  0  0  0  0  0  0  0  0  0
   -7.7892   13.8736   -5.4482 C   0  0  0  0  0  0  0  0  0  0  0  0
   -8.3238   14.1360   -4.0420 C   0  0  0  0  0  0  0  0  0  0  0  0
   -6.7882   12.7200   -5.4339 C   0  0  0  0  0  0  0  0  0  0  0  0
 10 11  1  0  0  0
 12 17  1  0  0  0
 14 18  2  0  0  0
 15 19  2  0  0  0
 15  8  1  0  0  0
  3  8  1  0  0  0
  3  4  1  0  0  0
  4  9  1  0  0  0
  1 23  1  0  0  0
 26 27  2  0  0  0
 28 29  2  0  0  0
 29 31  1  0  0  0
 31 32  1  0  0  0
 35 32  1  0  0  0
 35 36  1  0  0  0
 35 37  1  0  0  0
 30 25  2  0  0  0
  5  9  1  0  0  0
  5  6  1  0  0  0
  5  7  1  0  0  0
  7  8  1  0  0  0
 16 11  1  0  0  0
 16 13  2  0  0  0
 17 13  1  0  0  0
  9  1  1  0  0  0
  2 21  1  0  0  0
 23 25  1  0  0  0
 11 12  2  0  0  0
 13 18  1  0  0  0
 14 19  1  0  0  0
 15 16  1  0  0  0
  1  2  2  0  0  0
 25 26  1  0  0  0
 27 28  1  0  0  0
 29 30  1  0  0  0
 31 33  2  0  0  0
 21 22  3  0  0  0
 17 20  1  0  0  0
 23 24  1  0  0  0
 32 34  1  0  0  0
M  END
> <minimizedAffinity>
-9.30433

$$$$
CHEMBL585734


 37 40  0  0  0  0  0  0  0  0999 V2000
   -2.4702   14.3568   -5.2254 C   0  0  0  0  0  0  0  0  0  0  0  0
   -2.3839   13.1498   -5.7192 N   0  0  0  0  0  0  0  0  0  0  0  0
   -4.9244   17.1737   -5.3676 C   0  0  0  0  0  0  0  0  0  0  0  0
   -4.4777   15.7649   -4.9628 C   0  0  0  0  0  0  0  0  0  0  0  0
   -3.5421   15.4155   -7.2819 C   0  0  0  0  0  0  0  0  0  0  0  0
   -2.2259   15.2007   -8.0551 C   0  0  0  0  0  0  0  0  0  0  0  0
   -4.0486   16.8447   -7.6309 C   0  0  0  0  0  0  0  0  0  0  0  0
   -5.1793   17.2687   -6.8036 N   0  0  0  0  0  0  0  0  0  0  0  0
   -3.3911   15.2115   -5.8135 N   0  0  0  0  0  0  0  0  0  0  0  0
   -5.5823   19.9585   -8.7782 C   0  0  0  0  0  0  0  0  0  0  0  0
   -6.7916   19.1050   -8.9212 C   0  0  0  0  0  0  0  0  0  0  0  0
   -7.8702   19.3826   -9.7440 C   0  0  0  0  0  0  0  0  0  0  0  0
   -8.3687   17.5054   -8.6335 C   0  0  0  0  0  0  0  0  0  0  0  0
   -8.4157   15.7653   -7.2711 C   0  0  0  0  0  0  0  0  0  0  0  0
   -6.4568   17.0365   -7.2825 C   0  0  0  0  0  0  0  0  0  0  0  0
   -7.0903   17.8728   -8.2357 C   0  0  0  0  0  0  0  0  0  0  0  0
   -8.8139   18.4099   -9.5556 N   0  0  0  0  0  0  0  0  0  0  0  0
   -9.0857   16.4587   -8.2032 N   0  0  0  0  0  0  0  0  0  0  0  0
   -7.1733   15.9876   -6.7958 N   0  0  0  0  0  0  0  0  0  0  0  0
   -9.7210   18.3630   -9.9960 H   0  0  0  0  0  0  0  0  0  0  0  0
   -1.5523   12.2766   -5.1466 C   0  0  0  0  0  0  0  0  0  0  0  0
   -0.7999   11.5305   -4.6797 N   0  0  0  0  0  0  0  0  0  0  0  0
   -1.7773   14.8184   -4.1221 N   0  0  0  0  0  0  0  0  0  0  0  0
   -1.8396   14.2538   -3.2807 H   0  0  0  0  0  0  0  0  0  0  0  0
   -0.7431   15.7766   -4.0421 C   0  0  0  0  0  0  0  0  0  0  0  0
    0.4882   15.5201   -3.4353 C   0  0  0  0  0  0  0  0  0  0  0  0
    1.5367   16.4359   -3.4883 C   0  0  0  0  0  0  0  0  0  0  0  0
    1.3587   17.6606   -4.1218 C   0  0  0  0  0  0  0  0  0  0  0  0
    0.1208   17.9814   -4.6887 C   0  0  0  0  0  0  0  0  0  0  0  0
   -0.9147   17.0261   -4.6595 C   0  0  0  0  0  0  0  0  0  0  0  0
   -0.1522   19.3002   -5.3409 C   0  0  0  0  0  0  0  0  0  0  0  0
   -1.4743   19.6599   -5.5264 N   0  0  0  0  0  0  0  0  0  0  0  0
    0.7838   20.0048   -5.7057 O   0  0  0  0  0  0  0  0  0  0  0  0
   -2.2201   19.0267   -5.2889 H   0  0  0  0  0  0  0  0  0  0  0  0
   -1.8484   20.9053   -6.1811 C   0  0  0  0  0  0  0  0  0  0  0  0
   -2.9488   21.6013   -5.3832 C   0  0  0  0  0  0  0  0  0  0  0  0
   -2.3099   20.6424   -7.6132 C   0  0  0  0  0  0  0  0  0  0  0  0
 10 11  1  0  0  0
 12 17  1  0  0  0
 14 18  2  0  0  0
 15 19  2  0  0  0
 15  8  1  0  0  0
  3  8  1  0  0  0
  3  4  1  0  0  0
  4  9  1  0  0  0
  1 23  1  0  0  0
 26 27  2  0  0  0
 28 29  2  0  0  0
 29 31  1  0  0  0
 31 32  1  0  0  0
 35 32  1  0  0  0
 35 36  1  0  0  0
 35 37  1  0  0  0
 30 25  2  0  0  0
  5  9  1  0  0  0
  5  6  1  0  0  0
  5  7  1  0  0  0
  7  8  1  0  0  0
 16 11  1  0  0  0
 16 13  2  0  0  0
 17 13  1  0  0  0
  9  1  1  0  0  0
  2 21  1  0  0  0
 23 25  1  0  0  0
 11 12  2  0  0  0
 13 18  1  0  0  0
 14 19  1  0  0  0
 15 16  1  0  0  0
  1  2  2  0  0  0
 25 26  1  0  0  0
 27 28  1  0  0  0
 29 30  1  0  0  0
 31 33  2  0  0  0
 21 22  3  0  0  0
 17 20  1  0  0  0
 23 24  1  0  0  0
 32 34  1  0  0  0
M  END
> <minimizedAffinity>
-9.15269

$$$$
CHEMBL585734


 37 40  0  0  0  0  0  0  0  0999 V2000
   -2.6210   14.5600   -5.4319 C   0  0  0  0  0  0  0  0  0  0  0  0
   -2.6137   13.3922   -6.0187 N   0  0  0  0  0  0  0  0  0  0  0  0
   -4.4671   17.8020   -5.6760 C   0  0  0  0  0  0  0  0  0  0  0  0
   -4.3211   16.3372   -5.2504 C   0  0  0  0  0  0  0  0  0  0  0  0
   -3.3874   15.7871   -7.5310 C   0  0  0  0  0  0  0  0  0  0  0  0
   -2.1113   15.3103   -8.2526 C   0  0  0  0  0  0  0  0  0  0  0  0
   -3.5900   17.2842   -7.9032 C   0  0  0  0  0  0  0  0  0  0  0  0
   -4.6452   17.9303   -7.1210 N   0  0  0  0  0  0  0  0  0  0  0  0
   -3.3337   15.5726   -6.0573 N   0  0  0  0  0  0  0  0  0  0  0  0
   -4.8574   21.1436   -8.0831 C   0  0  0  0  0  0  0  0  0  0  0  0
   -6.1106   20.4609   -8.5009 C   0  0  0  0  0  0  0  0  0  0  0  0
   -7.1562   21.0613   -9.1818 C   0  0  0  0  0  0  0  0  0  0  0  0
   -7.7816   18.9546   -8.7612 C   0  0  0  0  0  0  0  0  0  0  0  0
   -7.9531   16.8660   -8.0581 C   0  0  0  0  0  0  0  0  0  0  0  0
   -5.9248   17.9482   -7.6477 C   0  0  0  0  0  0  0  0  0  0  0  0
   -6.4919   19.0910   -8.2658 C   0  0  0  0  0  0  0  0  0  0  0  0
   -8.1573   20.1399   -9.3274 N   0  0  0  0  0  0  0  0  0  0  0  0
   -8.5651   17.8695   -8.7039 N   0  0  0  0  0  0  0  0  0  0  0  0
   -6.7090   16.8421   -7.5380 N   0  0  0  0  0  0  0  0  0  0  0  0
   -9.0574   20.2971   -9.7567 H   0  0  0  0  0  0  0  0  0  0  0  0
   -1.9886   12.3746   -5.4224 C   0  0  0  0  0  0  0  0  0  0  0  0
   -1.4176   11.5209   -4.8877 N   0  0  0  0  0  0  0  0  0  0  0  0
   -2.0441   14.8408   -4.2076 N   0  0  0  0  0  0  0  0  0  0  0  0
   -2.4984   14.4421   -3.3920 H   0  0  0  0  0  0  0  0  0  0  0  0
   -0.7535   15.3302   -3.9093 C   0  0  0  0  0  0  0  0  0  0  0  0
    0.2935   14.5096   -3.4848 C   0  0  0  0  0  0  0  0  0  0  0  0
    1.5892   14.9966   -3.3266 C   0  0  0  0  0  0  0  0  0  0  0  0
    1.8586   16.3417   -3.5526 C   0  0  0  0  0  0  0  0  0  0  0  0
    0.8251   17.2100   -3.9194 C   0  0  0  0  0  0  0  0  0  0  0  0
   -0.4705   16.6905   -4.1129 C   0  0  0  0  0  0  0  0  0  0  0  0
    1.0374   18.6764   -4.1291 C   0  0  0  0  0  0  0  0  0  0  0  0
    1.3837   19.4359   -3.0270 N   0  0  0  0  0  0  0  0  0  0  0  0
    0.8818   19.1610   -5.2456 O   0  0  0  0  0  0  0  0  0  0  0  0
    1.4268   19.0247   -2.1090 H   0  0  0  0  0  0  0  0  0  0  0  0
    1.5797   20.8759   -3.1155 C   0  0  0  0  0  0  0  0  0  0  0  0
    3.0591   21.1861   -3.3333 C   0  0  0  0  0  0  0  0  0  0  0  0
    1.0678   21.5669   -1.8533 C   0  0  0  0  0  0  0  0  0  0  0  0
 10 11  1  0  0  0
 12 17  1  0  0  0
 14 18  2  0  0  0
 15 19  2  0  0  0
 15  8  1  0  0  0
  3  8  1  0  0  0
  3  4  1  0  0  0
  4  9  1  0  0  0
  1 23  1  0  0  0
 26 27  2  0  0  0
 28 29  2  0  0  0
 29 31  1  0  0  0
 31 32  1  0  0  0
 35 32  1  0  0  0
 35 36  1  0  0  0
 35 37  1  0  0  0
 30 25  2  0  0  0
  5  9  1  0  0  0
  5  6  1  0  0  0
  5  7  1  0  0  0
  7  8  1  0  0  0
 16 11  1  0  0  0
 16 13  2  0  0  0
 17 13  1  0  0  0
  9  1  1  0  0  0
  2 21  1  0  0  0
 23 25  1  0  0  0
 11 12  2  0  0  0
 13 18  1  0  0  0
 14 19  1  0  0  0
 15 16  1  0  0  0
  1  2  2  0  0  0
 25 26  1  0  0  0
 27 28  1  0  0  0
 29 30  1  0  0  0
 31 33  2  0  0  0
 21 22  3  0  0  0
 17 20  1  0  0  0
 23 24  1  0  0  0
 32 34  1  0  0  0
M  END
> <minimizedAffinity>
-9.01886

$$$$
CHEMBL585734


 37 40  0  0  0  0  0  0  0  0999 V2000
   -4.4282   13.5871   -6.2894 C   0  0  0  0  0  0  0  0  0  0  0  0
   -5.5139   12.8983   -6.0552 N   0  0  0  0  0  0  0  0  0  0  0  0
   -5.1475   17.1965   -5.6311 C   0  0  0  0  0  0  0  0  0  0  0  0
   -5.5499   15.7271   -5.7956 C   0  0  0  0  0  0  0  0  0  0  0  0
   -4.0868   15.5755   -7.8479 C   0  0  0  0  0  0  0  0  0  0  0  0
   -2.8191   14.8975   -8.4043 C   0  0  0  0  0  0  0  0  0  0  0  0
   -3.7448   17.0784   -7.6352 C   0  0  0  0  0  0  0  0  0  0  0  0
   -4.7882   17.8054   -6.9103 N   0  0  0  0  0  0  0  0  0  0  0  0
   -4.5912   14.9284   -6.6039 N   0  0  0  0  0  0  0  0  0  0  0  0
   -3.6109   20.9526   -6.8365 C   0  0  0  0  0  0  0  0  0  0  0  0
   -4.8282   20.9432   -7.6905 C   0  0  0  0  0  0  0  0  0  0  0  0
   -5.3518   22.0460   -8.3439 C   0  0  0  0  0  0  0  0  0  0  0  0
   -6.7409   20.3376   -8.7410 C   0  0  0  0  0  0  0  0  0  0  0  0
   -7.8058   18.4009   -8.7791 C   0  0  0  0  0  0  0  0  0  0  0  0
   -5.7619   18.4526   -7.6506 C   0  0  0  0  0  0  0  0  0  0  0  0
   -5.6971   19.8301   -7.9792 C   0  0  0  0  0  0  0  0  0  0  0  0
   -6.5072   21.6642   -8.9697 N   0  0  0  0  0  0  0  0  0  0  0  0
   -7.8190   19.6787   -9.1862 N   0  0  0  0  0  0  0  0  0  0  0  0
   -6.8637   17.7642   -8.0539 N   0  0  0  0  0  0  0  0  0  0  0  0
   -7.1259   22.2604   -9.4996 H   0  0  0  0  0  0  0  0  0  0  0  0
   -5.4001   11.6187   -5.6924 C   0  0  0  0  0  0  0  0  0  0  0  0
   -5.2795   10.5008   -5.4156 N   0  0  0  0  0  0  0  0  0  0  0  0
   -3.1378   13.1061   -6.1720 N   0  0  0  0  0  0  0  0  0  0  0  0
   -2.7505   12.6470   -6.9905 H   0  0  0  0  0  0  0  0  0  0  0  0
   -2.1445   13.4112   -5.2157 C   0  0  0  0  0  0  0  0  0  0  0  0
   -1.4091   12.4337   -4.5422 C   0  0  0  0  0  0  0  0  0  0  0  0
   -0.3455   12.7632   -3.7049 C   0  0  0  0  0  0  0  0  0  0  0  0
   -0.0184   14.0970   -3.4887 C   0  0  0  0  0  0  0  0  0  0  0  0
   -0.7694   15.1087   -4.0962 C   0  0  0  0  0  0  0  0  0  0  0  0
   -1.8160   14.7544   -4.9708 C   0  0  0  0  0  0  0  0  0  0  0  0
   -0.5019   16.5630   -3.8666 C   0  0  0  0  0  0  0  0  0  0  0  0
    0.7949   16.9340   -3.5630 N   0  0  0  0  0  0  0  0  0  0  0  0
   -1.4242   17.3698   -3.9316 O   0  0  0  0  0  0  0  0  0  0  0  0
    1.5148   16.2412   -3.4387 H   0  0  0  0  0  0  0  0  0  0  0  0
    1.1552   18.3176   -3.2883 C   0  0  0  0  0  0  0  0  0  0  0  0
    1.1189   19.1301   -4.5808 C   0  0  0  0  0  0  0  0  0  0  0  0
    2.5385   18.3956   -2.6455 C   0  0  0  0  0  0  0  0  0  0  0  0
 10 11  1  0  0  0
 12 17  1  0  0  0
 14 18  2  0  0  0
 15 19  2  0  0  0
 15  8  1  0  0  0
  3  8  1  0  0  0
  3  4  1  0  0  0
  4  9  1  0  0  0
  1 23  1  0  0  0
 26 27  2  0  0  0
 28 29  2  0  0  0
 29 31  1  0  0  0
 31 32  1  0  0  0
 35 32  1  0  0  0
 35 36  1  0  0  0
 35 37  1  0  0  0
 30 25  2  0  0  0
  5  9  1  0  0  0
  5  6  1  0  0  0
  5  7  1  0  0  0
  7  8  1  0  0  0
 16 11  1  0  0  0
 16 13  2  0  0  0
 17 13  1  0  0  0
  9  1  1  0  0  0
  2 21  1  0  0  0
 23 25  1  0  0  0
 11 12  2  0  0  0
 13 18  1  0  0  0
 14 19  1  0  0  0
 15 16  1  0  0  0
  1  2  2  0  0  0
 25 26  1  0  0  0
 27 28  1  0  0  0
 29 30  1  0  0  0
 31 33  2  0  0  0
 21 22  3  0  0  0
 17 20  1  0  0  0
 23 24  1  0  0  0
 32 34  1  0  0  0
M  END
> <minimizedAffinity>
-8.97067

$$$$
CHEMBL585734


 37 40  0  0  0  0  0  0  0  0999 V2000
   -4.6393   17.2354   -7.3397 C   0  0  0  0  0  0  0  0  0  0  0  0
   -5.7316   16.5179   -7.3349 N   0  0  0  0  0  0  0  0  0  0  0  0
   -3.0176   16.2977   -4.1041 C   0  0  0  0  0  0  0  0  0  0  0  0
   -3.6060   17.3012   -5.1015 C   0  0  0  0  0  0  0  0  0  0  0  0
   -2.3660   16.1421   -6.9708 C   0  0  0  0  0  0  0  0  0  0  0  0
   -2.5752   15.3174   -8.2563 C   0  0  0  0  0  0  0  0  0  0  0  0
   -1.7844   15.1763   -5.8985 C   0  0  0  0  0  0  0  0  0  0  0  0
   -1.7336   15.7700   -4.5614 N   0  0  0  0  0  0  0  0  0  0  0  0
   -3.6105   16.8185   -6.5077 N   0  0  0  0  0  0  0  0  0  0  0  0
    0.0775   13.1265   -3.5476 C   0  0  0  0  0  0  0  0  0  0  0  0
    0.9378   14.3345   -3.4396 C   0  0  0  0  0  0  0  0  0  0  0  0
    2.2549   14.3392   -3.0124 C   0  0  0  0  0  0  0  0  0  0  0  0
    1.6861   16.4712   -3.3822 C   0  0  0  0  0  0  0  0  0  0  0  0
    0.6397   18.3701   -3.8131 C   0  0  0  0  0  0  0  0  0  0  0  0
   -0.5645   16.4025   -4.1763 C   0  0  0  0  0  0  0  0  0  0  0  0
    0.5807   15.7024   -3.7203 C   0  0  0  0  0  0  0  0  0  0  0  0
    2.6899   15.6361   -2.9801 N   0  0  0  0  0  0  0  0  0  0  0  0
    1.7902   17.8064   -3.4165 N   0  0  0  0  0  0  0  0  0  0  0  0
   -0.5048   17.7615   -4.1853 N   0  0  0  0  0  0  0  0  0  0  0  0
    3.5993   15.9550   -2.6794 H   0  0  0  0  0  0  0  0  0  0  0  0
   -6.7248   16.8495   -8.1629 C   0  0  0  0  0  0  0  0  0  0  0  0
   -7.6150   17.1316   -8.8476 N   0  0  0  0  0  0  0  0  0  0  0  0
   -4.4027   18.3221   -8.1604 N   0  0  0  0  0  0  0  0  0  0  0  0
   -4.2889   18.1249   -9.1498 H   0  0  0  0  0  0  0  0  0  0  0  0
   -4.5976   19.6988   -7.9134 C   0  0  0  0  0  0  0  0  0  0  0  0
   -3.8477   20.4195   -6.9816 C   0  0  0  0  0  0  0  0  0  0  0  0
   -3.9691   21.8014   -6.8539 C   0  0  0  0  0  0  0  0  0  0  0  0
   -4.8853   22.4942   -7.6371 C   0  0  0  0  0  0  0  0  0  0  0  0
   -5.6994   21.8011   -8.5392 C   0  0  0  0  0  0  0  0  0  0  0  0
   -5.5338   20.4090   -8.6822 C   0  0  0  0  0  0  0  0  0  0  0  0
   -6.7391   22.4789   -9.3752 C   0  0  0  0  0  0  0  0  0  0  0  0
   -8.0450   22.0434   -9.2479 N   0  0  0  0  0  0  0  0  0  0  0  0
   -6.4104   23.3709  -10.1512 O   0  0  0  0  0  0  0  0  0  0  0  0
   -8.2726   21.2569   -8.6621 H   0  0  0  0  0  0  0  0  0  0  0  0
   -9.1265   22.6121  -10.0397 C   0  0  0  0  0  0  0  0  0  0  0  0
  -10.3976   22.6969   -9.1974 C   0  0  0  0  0  0  0  0  0  0  0  0
   -9.3706   21.7769  -11.2949 C   0  0  0  0  0  0  0  0  0  0  0  0
 10 11  1  0  0  0
 12 17  1  0  0  0
 14 18  2  0  0  0
 15 19  2  0  0  0
 15  8  1  0  0  0
  3  8  1  0  0  0
  3  4  1  0  0  0
  4  9  1  0  0  0
  1 23  1  0  0  0
 26 27  2  0  0  0
 28 29  2  0  0  0
 29 31  1  0  0  0
 31 32  1  0  0  0
 35 32  1  0  0  0
 35 36  1  0  0  0
 35 37  1  0  0  0
 30 25  2  0  0  0
  5  9  1  0  0  0
  5  6  1  0  0  0
  5  7  1  0  0  0
  7  8  1  0  0  0
 16 11  1  0  0  0
 16 13  2  0  0  0
 17 13  1  0  0  0
  9  1  1  0  0  0
  2 21  1  0  0  0
 23 25  1  0  0  0
 11 12  2  0  0  0
 13 18  1  0  0  0
 14 19  1  0  0  0
 15 16  1  0  0  0
  1  2  2  0  0  0
 25 26  1  0  0  0
 27 28  1  0  0  0
 29 30  1  0  0  0
 31 33  2  0  0  0
 21 22  3  0  0  0
 17 20  1  0  0  0
 23 24  1  0  0  0
 32 34  1  0  0  0
M  END
> <minimizedAffinity>
-8.75345

$$$$
CHEMBL3593766


 30 33  0  0  0  0  0  0  0  0999 V2000
   -5.3817   14.6132   -6.0797 C   0  0  0  0  0  0  0  0  0  0  0  0
   -6.7089   14.1812   -5.7428 C   0  0  0  0  0  0  0  0  0  0  0  0
   -6.9394   12.8433   -5.4198 C   0  0  0  0  0  0  0  0  0  0  0  0
   -4.7907   12.2918   -5.6874 C   0  0  0  0  0  0  0  0  0  0  0  0
   -4.3917   13.5835   -6.0363 C   0  0  0  0  0  0  0  0  0  0  0  0
   -2.9849   13.4666   -6.2669 C   0  0  0  0  0  0  0  0  0  0  0  0
   -2.5921   12.1623   -6.0601 C   0  0  0  0  0  0  0  0  0  0  0  0
   -6.0192   11.8584   -5.3722 N   0  0  0  0  0  0  0  0  0  0  0  0
   -3.7044   11.4615   -5.7054 N   0  0  0  0  0  0  0  0  0  0  0  0
   -3.7487   10.4790   -5.4817 H   0  0  0  0  0  0  0  0  0  0  0  0
   -7.8572   15.1488   -5.7340 C   0  0  0  0  0  0  0  0  0  0  0  0
   -8.6220   15.2939   -4.6052 N   0  0  0  0  0  0  0  0  0  0  0  0
   -8.1479   15.8323   -6.7139 O   0  0  0  0  0  0  0  0  0  0  0  0
   -9.3796   15.9633   -4.6668 H   0  0  0  0  0  0  0  0  0  0  0  0
   -8.5013   14.8232   -3.7232 H   0  0  0  0  0  0  0  0  0  0  0  0
   -5.1649   15.9580   -6.3786 N   0  0  0  0  0  0  0  0  0  0  0  0
   -5.9414   16.3955   -6.8901 H   0  0  0  0  0  0  0  0  0  0  0  0
   -4.0727   16.8729   -6.0608 C   0  0  0  0  0  0  0  0  0  0  0  0
   -3.1221   17.0763   -7.2367 C   0  0  0  0  0  0  0  0  0  0  0  0
   -1.8418   17.8270   -6.8581 C   0  0  0  0  0  0  0  0  0  0  0  0
   -1.4261   17.7405   -5.3818 C   0  0  0  0  0  0  0  0  0  0  0  0
   -3.4032   16.5675   -4.7024 C   0  0  0  0  0  0  0  0  0  0  0  0
   -1.9281   16.5286   -4.7377 N   0  0  0  0  0  0  0  0  0  0  0  0
   -1.3711   16.3262   -3.3889 C   0  0  0  0  0  0  0  0  0  0  0  0
   -0.0940   15.5027   -3.3908 C   0  0  0  0  0  0  0  0  0  0  0  0
    1.1539   16.1387   -3.2923 C   0  0  0  0  0  0  0  0  0  0  0  0
    2.3389   15.3971   -3.2849 C   0  0  0  0  0  0  0  0  0  0  0  0
    2.2963   14.0095   -3.3947 C   0  0  0  0  0  0  0  0  0  0  0  0
    1.0686   13.3625   -3.4962 C   0  0  0  0  0  0  0  0  0  0  0  0
   -0.1165   14.1023   -3.4783 C   0  0  0  0  0  0  0  0  0  0  0  0
  1 16  1  0  0  0
  2  3  2  0  0  0
  2 11  1  0  0  0
  4  8  2  0  0  0
  5  6  1  0  0  0
  5  1  2  0  0  0
  7  9  1  0  0  0
 11 12  1  0  0  0
 18 16  1  0  0  0
 18 19  1  0  0  0
 19 20  1  0  0  0
 20 21  1  0  0  0
 21 23  1  0  0  0
 22 23  1  0  0  0
 22 18  1  0  0  0
 24 23  1  0  0  0
 24 25  1  0  0  0
 26 27  2  0  0  0
 28 29  2  0  0  0
 30 25  2  0  0  0
  9  4  1  0  0  0
  1  2  1  0  0  0
  3  8  1  0  0  0
  4  5  1  0  0  0
  6  7  2  0  0  0
 11 13  2  0  0  0
 25 26  1  0  0  0
 27 28  1  0  0  0
 29 30  1  0  0  0
  9 10  1  0  0  0
 12 14  1  0  0  0
 12 15  1  0  0  0
 16 17  1  0  0  0
M  END
> <minimizedAffinity>
-9.55424

$$$$
CHEMBL3593766


 30 33  0  0  0  0  0  0  0  0999 V2000
    0.2974   15.1124   -3.5400 C   0  0  0  0  0  0  0  0  0  0  0  0
    1.6069   15.5860   -3.1900 C   0  0  0  0  0  0  0  0  0  0  0  0
    2.6442   14.6723   -2.9987 C   0  0  0  0  0  0  0  0  0  0  0  0
    1.3342   12.9194   -3.4501 C   0  0  0  0  0  0  0  0  0  0  0  0
    0.1933   13.6931   -3.6716 C   0  0  0  0  0  0  0  0  0  0  0  0
   -0.8231   12.7380   -3.9885 C   0  0  0  0  0  0  0  0  0  0  0  0
   -0.2889   11.4685   -3.9499 C   0  0  0  0  0  0  0  0  0  0  0  0
    2.5660   13.3313   -3.1194 N   0  0  0  0  0  0  0  0  0  0  0  0
    1.0265   11.5983   -3.6227 N   0  0  0  0  0  0  0  0  0  0  0  0
    1.6958   10.8509   -3.5195 H   0  0  0  0  0  0  0  0  0  0  0  0
    1.8787   17.0535   -3.0242 C   0  0  0  0  0  0  0  0  0  0  0  0
    3.1195   17.4794   -2.6257 N   0  0  0  0  0  0  0  0  0  0  0  0
    1.0206   17.9085   -3.2354 O   0  0  0  0  0  0  0  0  0  0  0  0
    3.2354   18.4815   -2.5343 H   0  0  0  0  0  0  0  0  0  0  0  0
    3.9265   16.9087   -2.4328 H   0  0  0  0  0  0  0  0  0  0  0  0
   -0.7226   16.0401   -3.7490 N   0  0  0  0  0  0  0  0  0  0  0  0
   -1.0925   16.4464   -2.8806 H   0  0  0  0  0  0  0  0  0  0  0  0
   -1.3281   16.5802   -4.9625 C   0  0  0  0  0  0  0  0  0  0  0  0
   -2.1659   17.8260   -4.6910 C   0  0  0  0  0  0  0  0  0  0  0  0
   -3.0074   18.2643   -5.8935 C   0  0  0  0  0  0  0  0  0  0  0  0
   -3.3525   17.1628   -6.9070 C   0  0  0  0  0  0  0  0  0  0  0  0
   -1.9996   15.4980   -5.8370 C   0  0  0  0  0  0  0  0  0  0  0  0
   -3.3611   15.8350   -6.2967 N   0  0  0  0  0  0  0  0  0  0  0  0
   -3.8885   14.7957   -7.1980 C   0  0  0  0  0  0  0  0  0  0  0  0
   -4.4217   13.5810   -6.4567 C   0  0  0  0  0  0  0  0  0  0  0  0
   -3.5572   12.5280   -6.1173 C   0  0  0  0  0  0  0  0  0  0  0  0
   -4.0282   11.4062   -5.4288 C   0  0  0  0  0  0  0  0  0  0  0  0
   -5.3743   11.3106   -5.0854 C   0  0  0  0  0  0  0  0  0  0  0  0
   -6.2462   12.3433   -5.4163 C   0  0  0  0  0  0  0  0  0  0  0  0
   -5.7699   13.4755   -6.0822 C   0  0  0  0  0  0  0  0  0  0  0  0
  1 16  1  0  0  0
  2  3  2  0  0  0
  2 11  1  0  0  0
  4  8  2  0  0  0
  5  6  1  0  0  0
  5  1  2  0  0  0
  7  9  1  0  0  0
 11 12  1  0  0  0
 18 16  1  0  0  0
 18 19  1  0  0  0
 19 20  1  0  0  0
 20 21  1  0  0  0
 21 23  1  0  0  0
 22 23  1  0  0  0
 22 18  1  0  0  0
 24 23  1  0  0  0
 24 25  1  0  0  0
 26 27  2  0  0  0
 28 29  2  0  0  0
 30 25  2  0  0  0
  9  4  1  0  0  0
  1  2  1  0  0  0
  3  8  1  0  0  0
  4  5  1  0  0  0
  6  7  2  0  0  0
 11 13  2  0  0  0
 25 26  1  0  0  0
 27 28  1  0  0  0
 29 30  1  0  0  0
  9 10  1  0  0  0
 12 14  1  0  0  0
 12 15  1  0  0  0
 16 17  1  0  0  0
M  END
> <minimizedAffinity>
-9.24349

$$$$
CHEMBL3593766


 30 33  0  0  0  0  0  0  0  0999 V2000
   -2.8125   19.5050   -7.1898 C   0  0  0  0  0  0  0  0  0  0  0  0
   -3.1359   20.9014   -7.1062 C   0  0  0  0  0  0  0  0  0  0  0  0
   -2.2843   21.7685   -6.4204 C   0  0  0  0  0  0  0  0  0  0  0  0
   -0.8528   20.1329   -5.9023 C   0  0  0  0  0  0  0  0  0  0  0  0
   -1.5931   19.1367   -6.5419 C   0  0  0  0  0  0  0  0  0  0  0  0
   -0.8338   17.9433   -6.3294 C   0  0  0  0  0  0  0  0  0  0  0  0
    0.2951   18.2411   -5.5976 C   0  0  0  0  0  0  0  0  0  0  0  0
   -1.1301   21.4406   -5.8045 N   0  0  0  0  0  0  0  0  0  0  0  0
    0.2682   19.5795   -5.3485 N   0  0  0  0  0  0  0  0  0  0  0  0
    0.9586   20.1089   -4.8382 H   0  0  0  0  0  0  0  0  0  0  0  0
   -4.3809   21.4455   -7.7457 C   0  0  0  0  0  0  0  0  0  0  0  0
   -5.4674   21.7601   -6.9708 N   0  0  0  0  0  0  0  0  0  0  0  0
   -4.4713   21.6265   -8.9585 O   0  0  0  0  0  0  0  0  0  0  0  0
   -6.2737   22.1228   -7.4652 H   0  0  0  0  0  0  0  0  0  0  0  0
   -5.5431   21.6865   -5.9693 H   0  0  0  0  0  0  0  0  0  0  0  0
   -3.6630   18.6561   -7.8975 N   0  0  0  0  0  0  0  0  0  0  0  0
   -3.6374   18.8034   -8.9143 H   0  0  0  0  0  0  0  0  0  0  0  0
   -4.5409   17.5684   -7.4769 C   0  0  0  0  0  0  0  0  0  0  0  0
   -5.2383   17.8616   -6.1520 C   0  0  0  0  0  0  0  0  0  0  0  0
   -5.9646   16.6463   -5.5675 C   0  0  0  0  0  0  0  0  0  0  0  0
   -5.4377   15.2734   -6.0116 C   0  0  0  0  0  0  0  0  0  0  0  0
   -3.8791   16.1773   -7.5928 C   0  0  0  0  0  0  0  0  0  0  0  0
   -4.0295   15.3222   -6.3991 N   0  0  0  0  0  0  0  0  0  0  0  0
   -3.4538   13.9857   -6.6288 C   0  0  0  0  0  0  0  0  0  0  0  0
   -2.3738   13.6230   -5.6232 C   0  0  0  0  0  0  0  0  0  0  0  0
   -1.6255   14.6337   -4.9986 C   0  0  0  0  0  0  0  0  0  0  0  0
   -0.6332   14.3194   -4.0654 C   0  0  0  0  0  0  0  0  0  0  0  0
   -0.3603   12.9894   -3.7558 C   0  0  0  0  0  0  0  0  0  0  0  0
   -1.0899   11.9745   -4.3673 C   0  0  0  0  0  0  0  0  0  0  0  0
   -2.0985   12.2902   -5.2812 C   0  0  0  0  0  0  0  0  0  0  0  0
  1 16  1  0  0  0
  2  3  2  0  0  0
  2 11  1  0  0  0
  4  8  2  0  0  0
  5  6  1  0  0  0
  5  1  2  0  0  0
  7  9  1  0  0  0
 11 12  1  0  0  0
 18 16  1  0  0  0
 18 19  1  0  0  0
 19 20  1  0  0  0
 20 21  1  0  0  0
 21 23  1  0  0  0
 22 23  1  0  0  0
 22 18  1  0  0  0
 24 23  1  0  0  0
 24 25  1  0  0  0
 26 27  2  0  0  0
 28 29  2  0  0  0
 30 25  2  0  0  0
  9  4  1  0  0  0
  1  2  1  0  0  0
  3  8  1  0  0  0
  4  5  1  0  0  0
  6  7  2  0  0  0
 11 13  2  0  0  0
 25 26  1  0  0  0
 27 28  1  0  0  0
 29 30  1  0  0  0
  9 10  1  0  0  0
 12 14  1  0  0  0
 12 15  1  0  0  0
 16 17  1  0  0  0
M  END
> <minimizedAffinity>
-9.05962

$$$$
CHEMBL3593766


 30 33  0  0  0  0  0  0  0  0999 V2000
   -4.5861   15.1082   -6.4161 C   0  0  0  0  0  0  0  0  0  0  0  0
   -5.9112   15.6311   -6.2363 C   0  0  0  0  0  0  0  0  0  0  0  0
   -6.9433   14.7786   -5.8422 C   0  0  0  0  0  0  0  0  0  0  0  0
   -5.5936   13.0000   -5.7581 C   0  0  0  0  0  0  0  0  0  0  0  0
   -4.4571   13.7099   -6.1503 C   0  0  0  0  0  0  0  0  0  0  0  0
   -3.4180   12.7271   -6.1696 C   0  0  0  0  0  0  0  0  0  0  0  0
   -3.9358   11.5035   -5.8047 C   0  0  0  0  0  0  0  0  0  0  0  0
   -6.8411   13.4585   -5.5857 N   0  0  0  0  0  0  0  0  0  0  0  0
   -5.2616   11.6891   -5.5553 N   0  0  0  0  0  0  0  0  0  0  0  0
   -5.9212   10.9850   -5.2615 H   0  0  0  0  0  0  0  0  0  0  0  0
   -6.2055   17.0853   -6.4681 C   0  0  0  0  0  0  0  0  0  0  0  0
   -7.0002   17.4641   -7.5193 N   0  0  0  0  0  0  0  0  0  0  0  0
   -5.7574   17.9702   -5.7415 O   0  0  0  0  0  0  0  0  0  0  0  0
   -7.1591   18.4596   -7.6179 H   0  0  0  0  0  0  0  0  0  0  0  0
   -7.4535   16.8627   -8.1878 H   0  0  0  0  0  0  0  0  0  0  0  0
   -3.5618   15.9778   -6.7890 N   0  0  0  0  0  0  0  0  0  0  0  0
   -3.4133   16.0262   -7.8048 H   0  0  0  0  0  0  0  0  0  0  0  0
   -2.6975   16.8676   -6.0194 C   0  0  0  0  0  0  0  0  0  0  0  0
   -1.6924   17.6069   -6.8975 C   0  0  0  0  0  0  0  0  0  0  0  0
   -0.6192   18.3501   -6.0963 C   0  0  0  0  0  0  0  0  0  0  0  0
   -0.3402   17.8080   -4.6863 C   0  0  0  0  0  0  0  0  0  0  0  0
   -2.1178   16.2011   -4.7520 C   0  0  0  0  0  0  0  0  0  0  0  0
   -0.6654   16.3884   -4.5670 N   0  0  0  0  0  0  0  0  0  0  0  0
   -0.2140   15.8043   -3.2920 C   0  0  0  0  0  0  0  0  0  0  0  0
    0.3723   14.4114   -3.4509 C   0  0  0  0  0  0  0  0  0  0  0  0
    1.7482   14.2015   -3.2657 C   0  0  0  0  0  0  0  0  0  0  0  0
    2.3040   12.9259   -3.4003 C   0  0  0  0  0  0  0  0  0  0  0  0
    1.4967   11.8434   -3.7406 C   0  0  0  0  0  0  0  0  0  0  0  0
    0.1315   12.0334   -3.9309 C   0  0  0  0  0  0  0  0  0  0  0  0
   -0.4276   13.3040   -3.7717 C   0  0  0  0  0  0  0  0  0  0  0  0
  1 16  1  0  0  0
  2  3  2  0  0  0
  2 11  1  0  0  0
  4  8  2  0  0  0
  5  6  1  0  0  0
  5  1  2  0  0  0
  7  9  1  0  0  0
 11 12  1  0  0  0
 18 16  1  0  0  0
 18 19  1  0  0  0
 19 20  1  0  0  0
 20 21  1  0  0  0
 21 23  1  0  0  0
 22 23  1  0  0  0
 22 18  1  0  0  0
 24 23  1  0  0  0
 24 25  1  0  0  0
 26 27  2  0  0  0
 28 29  2  0  0  0
 30 25  2  0  0  0
  9  4  1  0  0  0
  1  2  1  0  0  0
  3  8  1  0  0  0
  4  5  1  0  0  0
  6  7  2  0  0  0
 11 13  2  0  0  0
 25 26  1  0  0  0
 27 28  1  0  0  0
 29 30  1  0  0  0
  9 10  1  0  0  0
 12 14  1  0  0  0
 12 15  1  0  0  0
 16 17  1  0  0  0
M  END
> <minimizedAffinity>
-8.94104

$$$$
CHEMBL3593766


 30 33  0  0  0  0  0  0  0  0999 V2000
   -0.1954   14.2296   -3.8797 C   0  0  0  0  0  0  0  0  0  0  0  0
    0.5405   13.0020   -3.7661 C   0  0  0  0  0  0  0  0  0  0  0  0
    1.9033   13.0379   -3.4682 C   0  0  0  0  0  0  0  0  0  0  0  0
    1.9357   15.2695   -3.3606 C   0  0  0  0  0  0  0  0  0  0  0  0
    0.5782   15.4101   -3.6550 C   0  0  0  0  0  0  0  0  0  0  0  0
    0.3604   16.8237   -3.6427 C   0  0  0  0  0  0  0  0  0  0  0  0
    1.5435   17.4685   -3.3542 C   0  0  0  0  0  0  0  0  0  0  0  0
    2.6495   14.1403   -3.2518 N   0  0  0  0  0  0  0  0  0  0  0  0
    2.4915   16.5061   -3.1830 N   0  0  0  0  0  0  0  0  0  0  0  0
    3.4630   16.6544   -2.9563 H   0  0  0  0  0  0  0  0  0  0  0  0
   -0.1347   11.6755   -3.9653 C   0  0  0  0  0  0  0  0  0  0  0  0
    0.3190   10.5686   -3.2953 N   0  0  0  0  0  0  0  0  0  0  0  0
   -1.0974   11.5347   -4.7172 O   0  0  0  0  0  0  0  0  0  0  0  0
   -0.1816    9.7065   -3.4745 H   0  0  0  0  0  0  0  0  0  0  0  0
    1.0791   10.5247   -2.6362 H   0  0  0  0  0  0  0  0  0  0  0  0
   -1.5611   14.1751   -4.1563 N   0  0  0  0  0  0  0  0  0  0  0  0
   -2.1141   13.7346   -3.4104 H   0  0  0  0  0  0  0  0  0  0  0  0
   -2.3589   14.6676   -5.2751 C   0  0  0  0  0  0  0  0  0  0  0  0
   -1.6476   14.5039   -6.6148 C   0  0  0  0  0  0  0  0  0  0  0  0
   -2.3481   15.2322   -7.7660 C   0  0  0  0  0  0  0  0  0  0  0  0
   -3.2303   16.4245   -7.3663 C   0  0  0  0  0  0  0  0  0  0  0  0
   -2.9790   16.0577   -5.0106 C   0  0  0  0  0  0  0  0  0  0  0  0
   -2.8018   17.0298   -6.1072 N   0  0  0  0  0  0  0  0  0  0  0  0
   -3.5013   18.2928   -5.8136 C   0  0  0  0  0  0  0  0  0  0  0  0
   -2.5716   19.4945   -5.7858 C   0  0  0  0  0  0  0  0  0  0  0  0
   -1.1807   19.3076   -5.7450 C   0  0  0  0  0  0  0  0  0  0  0  0
   -0.3098   20.4010   -5.7266 C   0  0  0  0  0  0  0  0  0  0  0  0
   -0.8158   21.6984   -5.7296 C   0  0  0  0  0  0  0  0  0  0  0  0
   -2.1917   21.9026   -5.7668 C   0  0  0  0  0  0  0  0  0  0  0  0
   -3.0609   20.8095   -5.8105 C   0  0  0  0  0  0  0  0  0  0  0  0
  1 16  1  0  0  0
  2  3  2  0  0  0
  2 11  1  0  0  0
  4  8  2  0  0  0
  5  6  1  0  0  0
  5  1  2  0  0  0
  7  9  1  0  0  0
 11 12  1  0  0  0
 18 16  1  0  0  0
 18 19  1  0  0  0
 19 20  1  0  0  0
 20 21  1  0  0  0
 21 23  1  0  0  0
 22 23  1  0  0  0
 22 18  1  0  0  0
 24 23  1  0  0  0
 24 25  1  0  0  0
 26 27  2  0  0  0
 28 29  2  0  0  0
 30 25  2  0  0  0
  9  4  1  0  0  0
  1  2  1  0  0  0
  3  8  1  0  0  0
  4  5  1  0  0  0
  6  7  2  0  0  0
 11 13  2  0  0  0
 25 26  1  0  0  0
 27 28  1  0  0  0
 29 30  1  0  0  0
  9 10  1  0  0  0
 12 14  1  0  0  0
 12 15  1  0  0  0
 16 17  1  0  0  0
M  END
> <minimizedAffinity>
-8.82545

$$$$
CHEMBL3593766


 30 33  0  0  0  0  0  0  0  0999 V2000
   -5.1439   18.5974   -6.8901 C   0  0  0  0  0  0  0  0  0  0  0  0
   -5.5747   19.3881   -8.0085 C   0  0  0  0  0  0  0  0  0  0  0  0
   -4.6861   20.2832   -8.6056 C   0  0  0  0  0  0  0  0  0  0  0  0
   -3.0288   19.7457   -7.2067 C   0  0  0  0  0  0  0  0  0  0  0  0
   -3.7871   18.8130   -6.4963 C   0  0  0  0  0  0  0  0  0  0  0  0
   -2.8898   18.3167   -5.4991 C   0  0  0  0  0  0  0  0  0  0  0  0
   -1.6674   18.9388   -5.6303 C   0  0  0  0  0  0  0  0  0  0  0  0
   -3.4034   20.4995   -8.2497 N   0  0  0  0  0  0  0  0  0  0  0  0
   -1.7696   19.8040   -6.6768 N   0  0  0  0  0  0  0  0  0  0  0  0
   -1.0422   20.4063   -7.0307 H   0  0  0  0  0  0  0  0  0  0  0  0
   -6.9715   19.2682   -8.5467 C   0  0  0  0  0  0  0  0  0  0  0  0
   -7.8460   20.3167   -8.4215 N   0  0  0  0  0  0  0  0  0  0  0  0
   -7.3743   18.2508   -9.1076 O   0  0  0  0  0  0  0  0  0  0  0  0
   -8.7713   20.1699   -8.8066 H   0  0  0  0  0  0  0  0  0  0  0  0
   -7.6633   21.2161   -8.0070 H   0  0  0  0  0  0  0  0  0  0  0  0
   -6.0377   17.6920   -6.3190 N   0  0  0  0  0  0  0  0  0  0  0  0
   -6.7193   18.1307   -5.6873 H   0  0  0  0  0  0  0  0  0  0  0  0
   -6.2221   16.2536   -6.4853 C   0  0  0  0  0  0  0  0  0  0  0  0
   -7.0349   15.6353   -5.3519 C   0  0  0  0  0  0  0  0  0  0  0  0
   -7.0317   14.1037   -5.3693 C   0  0  0  0  0  0  0  0  0  0  0  0
   -5.8332   13.4441   -6.0679 C   0  0  0  0  0  0  0  0  0  0  0  0
   -4.9166   15.5148   -6.8547 C   0  0  0  0  0  0  0  0  0  0  0  0
   -4.6494   14.3010   -6.0585 N   0  0  0  0  0  0  0  0  0  0  0  0
   -3.4399   13.6091   -6.5369 C   0  0  0  0  0  0  0  0  0  0  0  0
   -2.3189   13.5940   -5.5111 C   0  0  0  0  0  0  0  0  0  0  0  0
   -1.7168   14.7969   -5.1086 C   0  0  0  0  0  0  0  0  0  0  0  0
   -0.6895   14.8032   -4.1605 C   0  0  0  0  0  0  0  0  0  0  0  0
   -0.2348   13.6058   -3.6139 C   0  0  0  0  0  0  0  0  0  0  0  0
   -0.8178   12.4039   -4.0033 C   0  0  0  0  0  0  0  0  0  0  0  0
   -1.8615   12.4004   -4.9322 C   0  0  0  0  0  0  0  0  0  0  0  0
  1 16  1  0  0  0
  2  3  2  0  0  0
  2 11  1  0  0  0
  4  8  2  0  0  0
  5  6  1  0  0  0
  5  1  2  0  0  0
  7  9  1  0  0  0
 11 12  1  0  0  0
 18 16  1  0  0  0
 18 19  1  0  0  0
 19 20  1  0  0  0
 20 21  1  0  0  0
 21 23  1  0  0  0
 22 23  1  0  0  0
 22 18  1  0  0  0
 24 23  1  0  0  0
 24 25  1  0  0  0
 26 27  2  0  0  0
 28 29  2  0  0  0
 30 25  2  0  0  0
  9  4  1  0  0  0
  1  2  1  0  0  0
  3  8  1  0  0  0
  4  5  1  0  0  0
  6  7  2  0  0  0
 11 13  2  0  0  0
 25 26  1  0  0  0
 27 28  1  0  0  0
 29 30  1  0  0  0
  9 10  1  0  0  0
 12 14  1  0  0  0
 12 15  1  0  0  0
 16 17  1  0  0  0
M  END
> <minimizedAffinity>
-8.66919

$$$$
CHEMBL3593766


 30 33  0  0  0  0  0  0  0  0999 V2000
   -4.2671   18.0365   -7.6584 C   0  0  0  0  0  0  0  0  0  0  0  0
   -5.2429   16.9857   -7.5865 C   0  0  0  0  0  0  0  0  0  0  0  0
   -6.5667   17.2460   -7.9432 C   0  0  0  0  0  0  0  0  0  0  0  0
   -6.1312   19.3804   -8.4403 C   0  0  0  0  0  0  0  0  0  0  0  0
   -4.7756   19.2905   -8.1182 C   0  0  0  0  0  0  0  0  0  0  0  0
   -4.2670   20.6037   -8.3682 C   0  0  0  0  0  0  0  0  0  0  0  0
   -5.2877   21.4146   -8.8144 C   0  0  0  0  0  0  0  0  0  0  0  0
   -7.0649   18.4207   -8.3801 N   0  0  0  0  0  0  0  0  0  0  0  0
   -6.4152   20.6522   -8.8545 N   0  0  0  0  0  0  0  0  0  0  0  0
   -7.3332   20.9533   -9.1442 H   0  0  0  0  0  0  0  0  0  0  0  0
   -4.8610   15.6069   -7.1304 C   0  0  0  0  0  0  0  0  0  0  0  0
   -5.7057   14.8960   -6.3173 N   0  0  0  0  0  0  0  0  0  0  0  0
   -3.8030   15.0750   -7.4614 O   0  0  0  0  0  0  0  0  0  0  0  0
   -5.3877   13.9729   -6.0474 H   0  0  0  0  0  0  0  0  0  0  0  0
   -6.6086   15.1837   -5.9768 H   0  0  0  0  0  0  0  0  0  0  0  0
   -2.9443   17.7539   -7.3193 N   0  0  0  0  0  0  0  0  0  0  0  0
   -2.4455   17.2067   -8.0320 H   0  0  0  0  0  0  0  0  0  0  0  0
   -2.1206   18.1283   -6.1738 C   0  0  0  0  0  0  0  0  0  0  0  0
   -0.7465   18.6457   -6.5883 C   0  0  0  0  0  0  0  0  0  0  0  0
    0.2201   18.8087   -5.4113 C   0  0  0  0  0  0  0  0  0  0  0  0
   -0.0683   17.9346   -4.1815 C   0  0  0  0  0  0  0  0  0  0  0  0
   -2.1268   17.0669   -5.0512 C   0  0  0  0  0  0  0  0  0  0  0  0
   -0.7917   16.7137   -4.5302 N   0  0  0  0  0  0  0  0  0  0  0  0
   -0.8953   15.7698   -3.4037 C   0  0  0  0  0  0  0  0  0  0  0  0
    0.1647   14.6816   -3.4408 C   0  0  0  0  0  0  0  0  0  0  0  0
   -0.1989   13.3540   -3.7175 C   0  0  0  0  0  0  0  0  0  0  0  0
    0.7634   12.3410   -3.7632 C   0  0  0  0  0  0  0  0  0  0  0  0
    2.1016   12.6356   -3.5146 C   0  0  0  0  0  0  0  0  0  0  0  0
    2.4797   13.9454   -3.2358 C   0  0  0  0  0  0  0  0  0  0  0  0
    1.5211   14.9616   -3.2149 C   0  0  0  0  0  0  0  0  0  0  0  0
  1 16  1  0  0  0
  2  3  2  0  0  0
  2 11  1  0  0  0
  4  8  2  0  0  0
  5  6  1  0  0  0
  5  1  2  0  0  0
  7  9  1  0  0  0
 11 12  1  0  0  0
 18 16  1  0  0  0
 18 19  1  0  0  0
 19 20  1  0  0  0
 20 21  1  0  0  0
 21 23  1  0  0  0
 22 23  1  0  0  0
 22 18  1  0  0  0
 24 23  1  0  0  0
 24 25  1  0  0  0
 26 27  2  0  0  0
 28 29  2  0  0  0
 30 25  2  0  0  0
  9  4  1  0  0  0
  1  2  1  0  0  0
  3  8  1  0  0  0
  4  5  1  0  0  0
  6  7  2  0  0  0
 11 13  2  0  0  0
 25 26  1  0  0  0
 27 28  1  0  0  0
 29 30  1  0  0  0
  9 10  1  0  0  0
 12 14  1  0  0  0
 12 15  1  0  0  0
 16 17  1  0  0  0
M  END
> <minimizedAffinity>
-8.57019

$$$$
CHEMBL3593766


 30 33  0  0  0  0  0  0  0  0999 V2000
   -7.3161   16.9303   -7.3722 C   0  0  0  0  0  0  0  0  0  0  0  0
   -8.1178   15.8251   -6.9280 C   0  0  0  0  0  0  0  0  0  0  0  0
   -9.2132   15.4156   -7.6895 C   0  0  0  0  0  0  0  0  0  0  0  0
   -8.8566   16.9770   -9.2475 C   0  0  0  0  0  0  0  0  0  0  0  0
   -7.7375   17.5128   -8.6073 C   0  0  0  0  0  0  0  0  0  0  0  0
   -7.3207   18.5805   -9.4629 C   0  0  0  0  0  0  0  0  0  0  0  0
   -8.1654   18.6557  -10.5489 C   0  0  0  0  0  0  0  0  0  0  0  0
   -9.6254   15.9510   -8.8567 N   0  0  0  0  0  0  0  0  0  0  0  0
   -9.0933   17.6700  -10.4023 N   0  0  0  0  0  0  0  0  0  0  0  0
   -9.8495   17.4587  -11.0353 H   0  0  0  0  0  0  0  0  0  0  0  0
   -7.7965   15.1014   -5.6521 C   0  0  0  0  0  0  0  0  0  0  0  0
   -8.5554   15.3198   -4.5312 N   0  0  0  0  0  0  0  0  0  0  0  0
   -6.8645   14.3041   -5.5658 O   0  0  0  0  0  0  0  0  0  0  0  0
   -8.2852   14.7993   -3.7053 H   0  0  0  0  0  0  0  0  0  0  0  0
   -9.3568   15.9236   -4.4463 H   0  0  0  0  0  0  0  0  0  0  0  0
   -6.2122   17.3127   -6.6107 N   0  0  0  0  0  0  0  0  0  0  0  0
   -6.4556   17.6253   -5.6625 H   0  0  0  0  0  0  0  0  0  0  0  0
   -4.7782   17.3058   -6.8839 C   0  0  0  0  0  0  0  0  0  0  0  0
   -4.3400   16.0716   -7.6665 C   0  0  0  0  0  0  0  0  0  0  0  0
   -2.8186   15.9153   -7.7497 C   0  0  0  0  0  0  0  0  0  0  0  0
   -2.0134   16.5918   -6.6299 C   0  0  0  0  0  0  0  0  0  0  0  0
   -3.9242   17.6516   -5.6439 C   0  0  0  0  0  0  0  0  0  0  0  0
   -2.7915   16.7367   -5.4015 N   0  0  0  0  0  0  0  0  0  0  0  0
   -1.9780   17.1915   -4.2605 C   0  0  0  0  0  0  0  0  0  0  0  0
   -0.7983   16.2785   -3.9704 C   0  0  0  0  0  0  0  0  0  0  0  0
    0.4940   16.8144   -3.8516 C   0  0  0  0  0  0  0  0  0  0  0  0
    1.5900   15.9910   -3.5775 C   0  0  0  0  0  0  0  0  0  0  0  0
    1.4144   14.6167   -3.4365 C   0  0  0  0  0  0  0  0  0  0  0  0
    0.1412   14.0678   -3.5539 C   0  0  0  0  0  0  0  0  0  0  0  0
   -0.9574   14.8944   -3.8030 C   0  0  0  0  0  0  0  0  0  0  0  0
  1 16  1  0  0  0
  2  3  2  0  0  0
  2 11  1  0  0  0
  4  8  2  0  0  0
  5  6  1  0  0  0
  5  1  2  0  0  0
  7  9  1  0  0  0
 11 12  1  0  0  0
 18 16  1  0  0  0
 18 19  1  0  0  0
 19 20  1  0  0  0
 20 21  1  0  0  0
 21 23  1  0  0  0
 22 23  1  0  0  0
 22 18  1  0  0  0
 24 23  1  0  0  0
 24 25  1  0  0  0
 26 27  2  0  0  0
 28 29  2  0  0  0
 30 25  2  0  0  0
  9  4  1  0  0  0
  1  2  1  0  0  0
  3  8  1  0  0  0
  4  5  1  0  0  0
  6  7  2  0  0  0
 11 13  2  0  0  0
 25 26  1  0  0  0
 27 28  1  0  0  0
 29 30  1  0  0  0
  9 10  1  0  0  0
 12 14  1  0  0  0
 12 15  1  0  0  0
 16 17  1  0  0  0
M  END
> <minimizedAffinity>
-8.55336

$$$$
CHEMBL3593766


 30 33  0  0  0  0  0  0  0  0999 V2000
   -3.8604   19.2993   -7.5337 C   0  0  0  0  0  0  0  0  0  0  0  0
   -2.7977   19.5360   -6.5976 C   0  0  0  0  0  0  0  0  0  0  0  0
   -2.5849   20.8239   -6.1044 C   0  0  0  0  0  0  0  0  0  0  0  0
   -4.2848   21.6756   -7.2781 C   0  0  0  0  0  0  0  0  0  0  0  0
   -4.6283   20.4574   -7.8676 C   0  0  0  0  0  0  0  0  0  0  0  0
   -5.7447   20.7740   -8.7038 C   0  0  0  0  0  0  0  0  0  0  0  0
   -6.0303   22.1179   -8.5999 C   0  0  0  0  0  0  0  0  0  0  0  0
   -3.2986   21.9278   -6.4061 N   0  0  0  0  0  0  0  0  0  0  0  0
   -5.1326   22.6507   -7.7255 N   0  0  0  0  0  0  0  0  0  0  0  0
   -5.0800   23.6142   -7.4321 H   0  0  0  0  0  0  0  0  0  0  0  0
   -1.9073   18.4164   -6.1407 C   0  0  0  0  0  0  0  0  0  0  0  0
   -1.8453   18.0902   -4.8104 N   0  0  0  0  0  0  0  0  0  0  0  0
   -1.2178   17.7644   -6.9226 O   0  0  0  0  0  0  0  0  0  0  0  0
   -1.2261   17.3253   -4.5705 H   0  0  0  0  0  0  0  0  0  0  0  0
   -2.3583   18.5142   -4.0547 H   0  0  0  0  0  0  0  0  0  0  0  0
   -4.0731   18.0024   -8.0000 N   0  0  0  0  0  0  0  0  0  0  0  0
   -3.4976   17.7597   -8.8160 H   0  0  0  0  0  0  0  0  0  0  0  0
   -4.9161   16.9107   -7.5218 C   0  0  0  0  0  0  0  0  0  0  0  0
   -5.6887   17.2808   -6.2594 C   0  0  0  0  0  0  0  0  0  0  0  0
   -6.3819   16.0844   -5.6004 C   0  0  0  0  0  0  0  0  0  0  0  0
   -5.7684   14.7078   -5.8973 C   0  0  0  0  0  0  0  0  0  0  0  0
   -4.1827   15.5514   -7.4848 C   0  0  0  0  0  0  0  0  0  0  0  0
   -4.3476   14.7967   -6.2271 N   0  0  0  0  0  0  0  0  0  0  0  0
   -3.6974   13.4774   -6.3118 C   0  0  0  0  0  0  0  0  0  0  0  0
   -2.4895   13.3504   -5.3985 C   0  0  0  0  0  0  0  0  0  0  0  0
   -1.8400   14.5021   -4.9261 C   0  0  0  0  0  0  0  0  0  0  0  0
   -0.7322   14.4048   -4.0791 C   0  0  0  0  0  0  0  0  0  0  0  0
   -0.2444   13.1549   -3.7060 C   0  0  0  0  0  0  0  0  0  0  0  0
   -0.8738   12.0027   -4.1670 C   0  0  0  0  0  0  0  0  0  0  0  0
   -1.9962   12.1007   -4.9933 C   0  0  0  0  0  0  0  0  0  0  0  0
  1 16  1  0  0  0
  2  3  2  0  0  0
  2 11  1  0  0  0
  4  8  2  0  0  0
  5  6  1  0  0  0
  5  1  2  0  0  0
  7  9  1  0  0  0
 11 12  1  0  0  0
 18 16  1  0  0  0
 18 19  1  0  0  0
 19 20  1  0  0  0
 20 21  1  0  0  0
 21 23  1  0  0  0
 22 23  1  0  0  0
 22 18  1  0  0  0
 24 23  1  0  0  0
 24 25  1  0  0  0
 26 27  2  0  0  0
 28 29  2  0  0  0
 30 25  2  0  0  0
  9  4  1  0  0  0
  1  2  1  0  0  0
  3  8  1  0  0  0
  4  5  1  0  0  0
  6  7  2  0  0  0
 11 13  2  0  0  0
 25 26  1  0  0  0
 27 28  1  0  0  0
 29 30  1  0  0  0
  9 10  1  0  0  0
 12 14  1  0  0  0
 12 15  1  0  0  0
 16 17  1  0  0  0
M  END
> <minimizedAffinity>
-8.52461

$$$$
CHEMBL4460419


 34 38  0  0  0  0  0  0  0  0999 V2000
   -1.3111   13.8678   -4.5035 C   0  0  0  0  0  0  0  0  0  0  0  0
   -1.6238   14.8583   -5.4598 C   0  0  0  0  0  0  0  0  0  0  0  0
   -2.6064   14.6473   -6.4412 C   0  0  0  0  0  0  0  0  0  0  0  0
   -3.2633   13.4159   -6.4637 C   0  0  0  0  0  0  0  0  0  0  0  0
   -2.9595   12.4222   -5.5332 C   0  0  0  0  0  0  0  0  0  0  0  0
   -1.9921   12.6453   -4.5602 C   0  0  0  0  0  0  0  0  0  0  0  0
    2.2375   14.3491   -3.3094 C   0  0  0  0  0  0  0  0  0  0  0  0
    1.0774   13.4454   -3.7217 C   0  0  0  0  0  0  0  0  0  0  0  0
   -0.2868   14.0873   -3.3943 C   0  0  0  0  0  0  0  0  0  0  0  0
   -0.1687   15.5722   -2.9748 C   0  0  0  0  0  0  0  0  0  0  0  0
    2.1115   15.7012   -4.0142 C   0  0  0  0  0  0  0  0  0  0  0  0
    0.7896   16.2824   -3.8274 N   0  0  0  0  0  0  0  0  0  0  0  0
    0.3894   17.4657   -4.4279 C   0  0  0  0  0  0  0  0  0  0  0  0
   -0.7660   18.4852   -6.2064 C   0  0  0  0  0  0  0  0  0  0  0  0
    0.3450   19.8224   -4.8488 C   0  0  0  0  0  0  0  0  0  0  0  0
    0.7807   18.7753   -4.0435 C   0  0  0  0  0  0  0  0  0  0  0  0
    1.5764   19.3892   -3.0255 C   0  0  0  0  0  0  0  0  0  0  0  0
    1.6113   20.7486   -3.2548 C   0  0  0  0  0  0  0  0  0  0  0  0
   -0.4090   17.3791   -5.5318 N   0  0  0  0  0  0  0  0  0  0  0  0
   -0.4267   19.7504   -5.9399 N   0  0  0  0  0  0  0  0  0  0  0  0
    0.8504   20.9959   -4.3632 N   0  0  0  0  0  0  0  0  0  0  0  0
    0.6788   21.8954   -4.7887 H   0  0  0  0  0  0  0  0  0  0  0  0
   -3.7588   16.7630   -7.1356 C   0  0  0  0  0  0  0  0  0  0  0  0
   -2.8894   15.7025   -7.3473 N   0  0  0  0  0  0  0  0  0  0  0  0
   -3.7979   17.6287   -8.2069 N   0  0  0  0  0  0  0  0  0  0  0  0
   -4.4253   16.9197   -6.1176 O   0  0  0  0  0  0  0  0  0  0  0  0
   -2.3791   15.6903   -8.2178 H   0  0  0  0  0  0  0  0  0  0  0  0
   -3.3346   17.3900   -9.0681 H   0  0  0  0  0  0  0  0  0  0  0  0
   -4.5099   18.8343   -8.2925 C   0  0  0  0  0  0  0  0  0  0  0  0
   -5.8658   18.9191   -8.5917 C   0  0  0  0  0  0  0  0  0  0  0  0
   -6.4756   20.1704   -8.6608 C   0  0  0  0  0  0  0  0  0  0  0  0
   -5.7190   21.3068   -8.4265 C   0  0  0  0  0  0  0  0  0  0  0  0
   -4.3793   21.1375   -8.1230 C   0  0  0  0  0  0  0  0  0  0  0  0
   -3.7622   19.9334   -8.0446 N   0  0  0  0  0  0  0  0  0  0  0  0
  7  8  1  0  0  0
  8  9  1  0  0  0
  9 10  1  0  0  0
  9  1  1  0  0  0
 10 12  1  0  0  0
 11 12  1  0  0  0
 11  7  1  0  0  0
 14 19  2  0  0  0
 15 20  2  0  0  0
 16 17  1  0  0  0
 16 13  2  0  0  0
 18 21  1  0  0  0
  2  3  2  0  0  0
  3 24  1  0  0  0
  4  5  2  0  0  0
  6  1  2  0  0  0
 23 25  1  0  0  0
 29 34  2  0  0  0
 30 31  2  0  0  0
 32 33  2  0  0  0
 12 13  1  0  0  0
 21 15  1  0  0  0
 24 23  1  0  0  0
 25 29  1  0  0  0
 13 19  1  0  0  0
 14 20  1  0  0  0
 15 16  1  0  0  0
 17 18  2  0  0  0
  1  2  1  0  0  0
  3  4  1  0  0  0
  5  6  1  0  0  0
 23 26  2  0  0  0
 29 30  1  0  0  0
 31 32  1  0  0  0
 33 34  1  0  0  0
 21 22  1  0  0  0
 24 27  1  0  0  0
 25 28  1  0  0  0
M  END
> <minimizedAffinity>
-10.58255

$$$$
CHEMBL4460419


 34 38  0  0  0  0  0  0  0  0999 V2000
   -3.1480   15.6772   -5.8589 C   0  0  0  0  0  0  0  0  0  0  0  0
   -3.9297   15.8161   -7.0263 C   0  0  0  0  0  0  0  0  0  0  0  0
   -5.1637   16.4869   -7.0082 C   0  0  0  0  0  0  0  0  0  0  0  0
   -5.6161   17.0045   -5.7933 C   0  0  0  0  0  0  0  0  0  0  0  0
   -4.8616   16.8672   -4.6282 C   0  0  0  0  0  0  0  0  0  0  0  0
   -3.6371   16.2099   -4.6595 C   0  0  0  0  0  0  0  0  0  0  0  0
   -0.4222   13.7020   -4.1505 C   0  0  0  0  0  0  0  0  0  0  0  0
   -1.1154   15.0256   -4.4666 C   0  0  0  0  0  0  0  0  0  0  0  0
   -1.7806   15.0003   -5.8583 C   0  0  0  0  0  0  0  0  0  0  0  0
   -1.8137   13.5854   -6.4846 C   0  0  0  0  0  0  0  0  0  0  0  0
   -1.4369   12.5595   -4.2258 C   0  0  0  0  0  0  0  0  0  0  0  0
   -2.1729   12.5776   -5.4821 N   0  0  0  0  0  0  0  0  0  0  0  0
   -3.2050   11.6984   -5.7693 C   0  0  0  0  0  0  0  0  0  0  0  0
   -3.8241    9.5761   -6.5754 C   0  0  0  0  0  0  0  0  0  0  0  0
   -5.4613   10.9904   -6.1454 C   0  0  0  0  0  0  0  0  0  0  0  0
   -4.5938   11.9890   -5.7152 C   0  0  0  0  0  0  0  0  0  0  0  0
   -5.4343   13.0911   -5.3614 C   0  0  0  0  0  0  0  0  0  0  0  0
   -6.7457   12.7390   -5.6024 C   0  0  0  0  0  0  0  0  0  0  0  0
   -2.8715   10.4483   -6.2046 N   0  0  0  0  0  0  0  0  0  0  0  0
   -5.1473    9.7663   -6.5862 N   0  0  0  0  0  0  0  0  0  0  0  0
   -6.7446   11.4551   -6.0716 N   0  0  0  0  0  0  0  0  0  0  0  0
   -7.5511   10.9108   -6.3414 H   0  0  0  0  0  0  0  0  0  0  0  0
   -7.2262   16.9078   -8.3705 C   0  0  0  0  0  0  0  0  0  0  0  0
   -5.8771   16.6159   -8.2285 N   0  0  0  0  0  0  0  0  0  0  0  0
   -7.6092   16.9794   -9.6921 N   0  0  0  0  0  0  0  0  0  0  0  0
   -8.0000   17.0794   -7.4341 O   0  0  0  0  0  0  0  0  0  0  0  0
   -5.3348   16.5154   -9.0736 H   0  0  0  0  0  0  0  0  0  0  0  0
   -6.9708   16.7038  -10.4200 H   0  0  0  0  0  0  0  0  0  0  0  0
   -8.8751   17.3268  -10.1865 C   0  0  0  0  0  0  0  0  0  0  0  0
  -10.0702   16.7985   -9.7090 C   0  0  0  0  0  0  0  0  0  0  0  0
  -11.2755   17.2060  -10.2778 C   0  0  0  0  0  0  0  0  0  0  0  0
  -11.2600   18.1329  -11.3070 C   0  0  0  0  0  0  0  0  0  0  0  0
  -10.0311   18.6199  -11.7169 C   0  0  0  0  0  0  0  0  0  0  0  0
   -8.8450   18.2449  -11.1787 N   0  0  0  0  0  0  0  0  0  0  0  0
  7  8  1  0  0  0
  8  9  1  0  0  0
  9 10  1  0  0  0
  9  1  1  0  0  0
 10 12  1  0  0  0
 11 12  1  0  0  0
 11  7  1  0  0  0
 14 19  2  0  0  0
 15 20  2  0  0  0
 16 17  1  0  0  0
 16 13  2  0  0  0
 18 21  1  0  0  0
  2  3  2  0  0  0
  3 24  1  0  0  0
  4  5  2  0  0  0
  6  1  2  0  0  0
 23 25  1  0  0  0
 29 34  2  0  0  0
 30 31  2  0  0  0
 32 33  2  0  0  0
 12 13  1  0  0  0
 21 15  1  0  0  0
 24 23  1  0  0  0
 25 29  1  0  0  0
 13 19  1  0  0  0
 14 20  1  0  0  0
 15 16  1  0  0  0
 17 18  2  0  0  0
  1  2  1  0  0  0
  3  4  1  0  0  0
  5  6  1  0  0  0
 23 26  2  0  0  0
 29 30  1  0  0  0
 31 32  1  0  0  0
 33 34  1  0  0  0
 21 22  1  0  0  0
 24 27  1  0  0  0
 25 28  1  0  0  0
M  END
> <minimizedAffinity>
-10.39122

$$$$
CHEMBL4460419


 34 38  0  0  0  0  0  0  0  0999 V2000
   -1.4883   14.9592   -5.4314 C   0  0  0  0  0  0  0  0  0  0  0  0
   -1.7172   16.2013   -6.0625 C   0  0  0  0  0  0  0  0  0  0  0  0
   -1.3516   17.4129   -5.4531 C   0  0  0  0  0  0  0  0  0  0  0  0
   -0.7663   17.3649   -4.1868 C   0  0  0  0  0  0  0  0  0  0  0  0
   -0.5425   16.1472   -3.5443 C   0  0  0  0  0  0  0  0  0  0  0  0
   -0.8994   14.9535   -4.1607 C   0  0  0  0  0  0  0  0  0  0  0  0
   -3.1202   11.5555   -5.3905 C   0  0  0  0  0  0  0  0  0  0  0  0
   -1.9491   12.4798   -5.0642 C   0  0  0  0  0  0  0  0  0  0  0  0
   -1.8264   13.6253   -6.0903 C   0  0  0  0  0  0  0  0  0  0  0  0
   -3.0466   13.7187   -7.0377 C   0  0  0  0  0  0  0  0  0  0  0  0
   -4.4181   12.3647   -5.4307 C   0  0  0  0  0  0  0  0  0  0  0  0
   -4.2986   13.5275   -6.2990 N   0  0  0  0  0  0  0  0  0  0  0  0
   -5.3048   14.4686   -6.4492 C   0  0  0  0  0  0  0  0  0  0  0  0
   -5.9624   16.5232   -7.3892 C   0  0  0  0  0  0  0  0  0  0  0  0
   -7.3853   15.5662   -6.0018 C   0  0  0  0  0  0  0  0  0  0  0  0
   -6.5598   14.4679   -5.7851 C   0  0  0  0  0  0  0  0  0  0  0  0
   -7.2720   13.6377   -4.8633 C   0  0  0  0  0  0  0  0  0  0  0  0
   -8.4637   14.2549   -4.5458 C   0  0  0  0  0  0  0  0  0  0  0  0
   -5.0592   15.5361   -7.2638 N   0  0  0  0  0  0  0  0  0  0  0  0
   -7.1515   16.6246   -6.7870 N   0  0  0  0  0  0  0  0  0  0  0  0
   -8.5201   15.4232   -5.2533 N   0  0  0  0  0  0  0  0  0  0  0  0
   -9.2670   16.1025   -5.2375 H   0  0  0  0  0  0  0  0  0  0  0  0
   -2.8068   19.2434   -6.3577 C   0  0  0  0  0  0  0  0  0  0  0  0
   -1.5826   18.6197   -6.1637 N   0  0  0  0  0  0  0  0  0  0  0  0
   -2.6899   20.4114   -7.0791 N   0  0  0  0  0  0  0  0  0  0  0  0
   -3.8777   18.8112   -5.9434 O   0  0  0  0  0  0  0  0  0  0  0  0
   -0.7654   19.0809   -6.5348 H   0  0  0  0  0  0  0  0  0  0  0  0
   -1.8125   20.6565   -7.5074 H   0  0  0  0  0  0  0  0  0  0  0  0
   -3.7136   21.3200   -7.3864 C   0  0  0  0  0  0  0  0  0  0  0  0
   -4.5878   21.1755   -8.4589 C   0  0  0  0  0  0  0  0  0  0  0  0
   -5.5662   22.1430   -8.6808 C   0  0  0  0  0  0  0  0  0  0  0  0
   -5.6511   23.2295   -7.8257 C   0  0  0  0  0  0  0  0  0  0  0  0
   -4.7525   23.2941   -6.7750 C   0  0  0  0  0  0  0  0  0  0  0  0
   -3.7950   22.3658   -6.5333 N   0  0  0  0  0  0  0  0  0  0  0  0
  7  8  1  0  0  0
  8  9  1  0  0  0
  9 10  1  0  0  0
  9  1  1  0  0  0
 10 12  1  0  0  0
 11 12  1  0  0  0
 11  7  1  0  0  0
 14 19  2  0  0  0
 15 20  2  0  0  0
 16 17  1  0  0  0
 16 13  2  0  0  0
 18 21  1  0  0  0
  2  3  2  0  0  0
  3 24  1  0  0  0
  4  5  2  0  0  0
  6  1  2  0  0  0
 23 25  1  0  0  0
 29 34  2  0  0  0
 30 31  2  0  0  0
 32 33  2  0  0  0
 12 13  1  0  0  0
 21 15  1  0  0  0
 24 23  1  0  0  0
 25 29  1  0  0  0
 13 19  1  0  0  0
 14 20  1  0  0  0
 15 16  1  0  0  0
 17 18  2  0  0  0
  1  2  1  0  0  0
  3  4  1  0  0  0
  5  6  1  0  0  0
 23 26  2  0  0  0
 29 30  1  0  0  0
 31 32  1  0  0  0
 33 34  1  0  0  0
 21 22  1  0  0  0
 24 27  1  0  0  0
 25 28  1  0  0  0
M  END
> <minimizedAffinity>
-10.17085

$$$$
CHEMBL4460419


 34 38  0  0  0  0  0  0  0  0999 V2000
   -2.7375   17.8619   -6.2444 C   0  0  0  0  0  0  0  0  0  0  0  0
   -3.7050   17.5030   -7.2080 C   0  0  0  0  0  0  0  0  0  0  0  0
   -4.9117   16.8842   -6.8417 C   0  0  0  0  0  0  0  0  0  0  0  0
   -5.1301   16.6112   -5.4903 C   0  0  0  0  0  0  0  0  0  0  0  0
   -4.1805   16.9494   -4.5262 C   0  0  0  0  0  0  0  0  0  0  0  0
   -2.9939   17.5703   -4.8988 C   0  0  0  0  0  0  0  0  0  0  0  0
    0.0864   20.2284   -5.4225 C   0  0  0  0  0  0  0  0  0  0  0  0
   -1.3302   19.9628   -5.9276 C   0  0  0  0  0  0  0  0  0  0  0  0
   -1.4417   18.5818   -6.6061 C   0  0  0  0  0  0  0  0  0  0  0  0
   -0.1879   17.7009   -6.3892 C   0  0  0  0  0  0  0  0  0  0  0  0
    0.4974   19.1279   -4.4423 C   0  0  0  0  0  0  0  0  0  0  0  0
    0.2899   17.8019   -5.0067 N   0  0  0  0  0  0  0  0  0  0  0  0
    0.5081   16.6322   -4.2960 C   0  0  0  0  0  0  0  0  0  0  0  0
    1.8477   15.4924   -2.7327 C   0  0  0  0  0  0  0  0  0  0  0  0
    0.2528   14.3243   -3.7113 C   0  0  0  0  0  0  0  0  0  0  0  0
   -0.1970   15.4102   -4.4553 C   0  0  0  0  0  0  0  0  0  0  0  0
   -1.2874   14.9078   -5.2330 C   0  0  0  0  0  0  0  0  0  0  0  0
   -1.4434   13.5658   -4.9562 C   0  0  0  0  0  0  0  0  0  0  0  0
    1.5339   16.6186   -3.3954 N   0  0  0  0  0  0  0  0  0  0  0  0
    1.2643   14.2940   -2.8353 N   0  0  0  0  0  0  0  0  0  0  0  0
   -0.5034   13.2290   -4.0226 N   0  0  0  0  0  0  0  0  0  0  0  0
   -0.3579   12.3168   -3.6149 H   0  0  0  0  0  0  0  0  0  0  0  0
   -6.8835   17.3994   -8.3023 C   0  0  0  0  0  0  0  0  0  0  0  0
   -5.8505   16.5837   -7.8629 N   0  0  0  0  0  0  0  0  0  0  0  0
   -7.6083   16.8216   -9.3217 N   0  0  0  0  0  0  0  0  0  0  0  0
   -7.1353   18.5076   -7.8402 O   0  0  0  0  0  0  0  0  0  0  0  0
   -5.7280   15.6996   -8.3337 H   0  0  0  0  0  0  0  0  0  0  0  0
   -7.4462   15.8615   -9.5773 H   0  0  0  0  0  0  0  0  0  0  0  0
   -8.6647   17.4010  -10.0400 C   0  0  0  0  0  0  0  0  0  0  0  0
  -10.0057   17.2742   -9.6920 C   0  0  0  0  0  0  0  0  0  0  0  0
  -10.9792   17.8843  -10.4811 C   0  0  0  0  0  0  0  0  0  0  0  0
  -10.5915   18.6087  -11.5963 C   0  0  0  0  0  0  0  0  0  0  0  0
   -9.2373   18.6977  -11.8679 C   0  0  0  0  0  0  0  0  0  0  0  0
   -8.2698   18.1189  -11.1156 N   0  0  0  0  0  0  0  0  0  0  0  0
  7  8  1  0  0  0
  8  9  1  0  0  0
  9 10  1  0  0  0
  9  1  1  0  0  0
 10 12  1  0  0  0
 11 12  1  0  0  0
 11  7  1  0  0  0
 14 19  2  0  0  0
 15 20  2  0  0  0
 16 17  1  0  0  0
 16 13  2  0  0  0
 18 21  1  0  0  0
  2  3  2  0  0  0
  3 24  1  0  0  0
  4  5  2  0  0  0
  6  1  2  0  0  0
 23 25  1  0  0  0
 29 34  2  0  0  0
 30 31  2  0  0  0
 32 33  2  0  0  0
 12 13  1  0  0  0
 21 15  1  0  0  0
 24 23  1  0  0  0
 25 29  1  0  0  0
 13 19  1  0  0  0
 14 20  1  0  0  0
 15 16  1  0  0  0
 17 18  2  0  0  0
  1  2  1  0  0  0
  3  4  1  0  0  0
  5  6  1  0  0  0
 23 26  2  0  0  0
 29 30  1  0  0  0
 31 32  1  0  0  0
 33 34  1  0  0  0
 21 22  1  0  0  0
 24 27  1  0  0  0
 25 28  1  0  0  0
M  END
> <minimizedAffinity>
-9.94318

$$$$
CHEMBL4460419


 34 38  0  0  0  0  0  0  0  0999 V2000
   -1.9875   13.2563   -5.0853 C   0  0  0  0  0  0  0  0  0  0  0  0
   -1.7984   14.6167   -4.7584 C   0  0  0  0  0  0  0  0  0  0  0  0
   -0.7743   15.0275   -3.8892 C   0  0  0  0  0  0  0  0  0  0  0  0
    0.0521   14.0494   -3.3335 C   0  0  0  0  0  0  0  0  0  0  0  0
   -0.1272   12.6998   -3.6373 C   0  0  0  0  0  0  0  0  0  0  0  0
   -1.1378   12.3053   -4.5064 C   0  0  0  0  0  0  0  0  0  0  0  0
   -5.5692   12.4354   -5.9499 C   0  0  0  0  0  0  0  0  0  0  0  0
   -4.2142   12.0480   -5.3614 C   0  0  0  0  0  0  0  0  0  0  0  0
   -3.0569   12.7853   -6.0663 C   0  0  0  0  0  0  0  0  0  0  0  0
   -3.5453   13.9142   -7.0057 C   0  0  0  0  0  0  0  0  0  0  0  0
   -5.7652   13.9485   -5.8366 C   0  0  0  0  0  0  0  0  0  0  0  0
   -4.6311   14.6789   -6.3845 N   0  0  0  0  0  0  0  0  0  0  0  0
   -4.5221   16.0596   -6.3342 C   0  0  0  0  0  0  0  0  0  0  0  0
   -3.4684   17.9227   -5.3565 C   0  0  0  0  0  0  0  0  0  0  0  0
   -5.1336   18.3384   -6.7421 C   0  0  0  0  0  0  0  0  0  0  0  0
   -5.3498   16.9915   -7.0141 C   0  0  0  0  0  0  0  0  0  0  0  0
   -6.4446   16.9644   -7.9344 C   0  0  0  0  0  0  0  0  0  0  0  0
   -6.8563   18.2600   -8.1663 C   0  0  0  0  0  0  0  0  0  0  0  0
   -3.5721   16.5919   -5.5108 N   0  0  0  0  0  0  0  0  0  0  0  0
   -4.2152   18.8727   -5.9282 N   0  0  0  0  0  0  0  0  0  0  0  0
   -6.0429   19.0837   -7.4393 N   0  0  0  0  0  0  0  0  0  0  0  0
   -6.0894   20.0914   -7.3948 H   0  0  0  0  0  0  0  0  0  0  0  0
    0.5036   17.1847   -3.8810 C   0  0  0  0  0  0  0  0  0  0  0  0
   -0.6249   16.4158   -3.6345 N   0  0  0  0  0  0  0  0  0  0  0  0
    0.3211   18.5062   -3.5364 N   0  0  0  0  0  0  0  0  0  0  0  0
    1.5510   16.7480   -4.3473 O   0  0  0  0  0  0  0  0  0  0  0  0
   -1.4359   16.8905   -3.2669 H   0  0  0  0  0  0  0  0  0  0  0  0
   -0.5065   18.7902   -3.0386 H   0  0  0  0  0  0  0  0  0  0  0  0
    1.2275   19.5604   -3.7236 C   0  0  0  0  0  0  0  0  0  0  0  0
    2.2436   19.8825   -2.8297 C   0  0  0  0  0  0  0  0  0  0  0  0
    3.0858   20.9577   -3.1077 C   0  0  0  0  0  0  0  0  0  0  0  0
    2.8962   21.6834   -4.2722 C   0  0  0  0  0  0  0  0  0  0  0  0
    1.8710   21.2921   -5.1156 C   0  0  0  0  0  0  0  0  0  0  0  0
    1.0409   20.2487   -4.8724 N   0  0  0  0  0  0  0  0  0  0  0  0
  7  8  1  0  0  0
  8  9  1  0  0  0
  9 10  1  0  0  0
  9  1  1  0  0  0
 10 12  1  0  0  0
 11 12  1  0  0  0
 11  7  1  0  0  0
 14 19  2  0  0  0
 15 20  2  0  0  0
 16 17  1  0  0  0
 16 13  2  0  0  0
 18 21  1  0  0  0
  2  3  2  0  0  0
  3 24  1  0  0  0
  4  5  2  0  0  0
  6  1  2  0  0  0
 23 25  1  0  0  0
 29 34  2  0  0  0
 30 31  2  0  0  0
 32 33  2  0  0  0
 12 13  1  0  0  0
 21 15  1  0  0  0
 24 23  1  0  0  0
 25 29  1  0  0  0
 13 19  1  0  0  0
 14 20  1  0  0  0
 15 16  1  0  0  0
 17 18  2  0  0  0
  1  2  1  0  0  0
  3  4  1  0  0  0
  5  6  1  0  0  0
 23 26  2  0  0  0
 29 30  1  0  0  0
 31 32  1  0  0  0
 33 34  1  0  0  0
 21 22  1  0  0  0
 24 27  1  0  0  0
 25 28  1  0  0  0
M  END
> <minimizedAffinity>
-9.85094

$$$$
CHEMBL4460419


 34 38  0  0  0  0  0  0  0  0999 V2000
   -3.0082   16.6711   -6.7213 C   0  0  0  0  0  0  0  0  0  0  0  0
   -3.9324   16.9123   -7.7610 C   0  0  0  0  0  0  0  0  0  0  0  0
   -4.7500   18.0546   -7.7663 C   0  0  0  0  0  0  0  0  0  0  0  0
   -4.6418   18.9489   -6.7001 C   0  0  0  0  0  0  0  0  0  0  0  0
   -3.7416   18.7209   -5.6593 C   0  0  0  0  0  0  0  0  0  0  0  0
   -2.9304   17.5921   -5.6690 C   0  0  0  0  0  0  0  0  0  0  0  0
   -1.1298   13.9359   -4.9212 C   0  0  0  0  0  0  0  0  0  0  0  0
   -1.2437   15.3764   -5.4156 C   0  0  0  0  0  0  0  0  0  0  0  0
   -2.0707   15.4674   -6.7147 C   0  0  0  0  0  0  0  0  0  0  0  0
   -2.7943   14.1442   -7.0622 C   0  0  0  0  0  0  0  0  0  0  0  0
   -2.5282   13.3583   -4.6941 C   0  0  0  0  0  0  0  0  0  0  0  0
   -3.3785   13.5365   -5.8625 N   0  0  0  0  0  0  0  0  0  0  0  0
   -4.7157   13.1731   -5.8902 C   0  0  0  0  0  0  0  0  0  0  0  0
   -6.2916   11.4720   -6.2900 C   0  0  0  0  0  0  0  0  0  0  0  0
   -7.0893   13.4883   -5.8851 C   0  0  0  0  0  0  0  0  0  0  0  0
   -5.8247   14.0423   -5.7155 C   0  0  0  0  0  0  0  0  0  0  0  0
   -6.0546   15.4257   -5.4333 C   0  0  0  0  0  0  0  0  0  0  0  0
   -7.4133   15.6603   -5.4612 C   0  0  0  0  0  0  0  0  0  0  0  0
   -5.0140   11.8707   -6.1699 N   0  0  0  0  0  0  0  0  0  0  0  0
   -7.3951   12.2172   -6.1718 N   0  0  0  0  0  0  0  0  0  0  0  0
   -8.0283   14.4693   -5.7296 N   0  0  0  0  0  0  0  0  0  0  0  0
   -9.0215   14.3095   -5.8171 H   0  0  0  0  0  0  0  0  0  0  0  0
   -6.9943   17.9895   -8.8822 C   0  0  0  0  0  0  0  0  0  0  0  0
   -5.6308   18.2461   -8.8627 N   0  0  0  0  0  0  0  0  0  0  0  0
   -7.5668   18.2974  -10.0971 N   0  0  0  0  0  0  0  0  0  0  0  0
   -7.6274   17.5359   -7.9342 O   0  0  0  0  0  0  0  0  0  0  0  0
   -5.2227   18.6384   -9.6980 H   0  0  0  0  0  0  0  0  0  0  0  0
   -6.9870   18.5427  -10.8825 H   0  0  0  0  0  0  0  0  0  0  0  0
   -8.9278   18.2299  -10.4303 C   0  0  0  0  0  0  0  0  0  0  0  0
   -9.6380   19.2701  -11.0210 C   0  0  0  0  0  0  0  0  0  0  0  0
  -10.9924   19.1016  -11.3035 C   0  0  0  0  0  0  0  0  0  0  0  0
  -11.6049   17.8987  -10.9928 C   0  0  0  0  0  0  0  0  0  0  0  0
  -10.8267   16.9091  -10.4179 C   0  0  0  0  0  0  0  0  0  0  0  0
   -9.5076   17.0441  -10.1370 N   0  0  0  0  0  0  0  0  0  0  0  0
  7  8  1  0  0  0
  8  9  1  0  0  0
  9 10  1  0  0  0
  9  1  1  0  0  0
 10 12  1  0  0  0
 11 12  1  0  0  0
 11  7  1  0  0  0
 14 19  2  0  0  0
 15 20  2  0  0  0
 16 17  1  0  0  0
 16 13  2  0  0  0
 18 21  1  0  0  0
  2  3  2  0  0  0
  3 24  1  0  0  0
  4  5  2  0  0  0
  6  1  2  0  0  0
 23 25  1  0  0  0
 29 34  2  0  0  0
 30 31  2  0  0  0
 32 33  2  0  0  0
 12 13  1  0  0  0
 21 15  1  0  0  0
 24 23  1  0  0  0
 25 29  1  0  0  0
 13 19  1  0  0  0
 14 20  1  0  0  0
 15 16  1  0  0  0
 17 18  2  0  0  0
  1  2  1  0  0  0
  3  4  1  0  0  0
  5  6  1  0  0  0
 23 26  2  0  0  0
 29 30  1  0  0  0
 31 32  1  0  0  0
 33 34  1  0  0  0
 21 22  1  0  0  0
 24 27  1  0  0  0
 25 28  1  0  0  0
M  END
> <minimizedAffinity>
-9.82201

$$$$
CHEMBL4460419


 34 38  0  0  0  0  0  0  0  0999 V2000
   -3.9013   18.6060   -6.4407 C   0  0  0  0  0  0  0  0  0  0  0  0
   -2.9139   19.2531   -5.6662 C   0  0  0  0  0  0  0  0  0  0  0  0
   -2.1943   20.3522   -6.1634 C   0  0  0  0  0  0  0  0  0  0  0  0
   -2.4657   20.7864   -7.4619 C   0  0  0  0  0  0  0  0  0  0  0  0
   -3.4304   20.1522   -8.2448 C   0  0  0  0  0  0  0  0  0  0  0  0
   -4.1435   19.0713   -7.7393 C   0  0  0  0  0  0  0  0  0  0  0  0
   -4.9823   14.9899   -6.5127 C   0  0  0  0  0  0  0  0  0  0  0  0
   -5.0946   16.4283   -7.0135 C   0  0  0  0  0  0  0  0  0  0  0  0
   -4.7350   17.4440   -5.9094 C   0  0  0  0  0  0  0  0  0  0  0  0
   -4.1071   16.7794   -4.6607 C   0  0  0  0  0  0  0  0  0  0  0  0
   -3.5624   14.7318   -6.0049 C   0  0  0  0  0  0  0  0  0  0  0  0
   -3.1424   15.7453   -5.0476 N   0  0  0  0  0  0  0  0  0  0  0  0
   -1.8715   15.7879   -4.4964 C   0  0  0  0  0  0  0  0  0  0  0  0
   -0.0437   17.1210   -3.8489 C   0  0  0  0  0  0  0  0  0  0  0  0
    0.2258   14.9358   -3.7163 C   0  0  0  0  0  0  0  0  0  0  0  0
   -1.0641   14.6685   -4.1630 C   0  0  0  0  0  0  0  0  0  0  0  0
   -1.1677   13.2419   -4.1826 C   0  0  0  0  0  0  0  0  0  0  0  0
    0.0376   12.7080   -3.7776 C   0  0  0  0  0  0  0  0  0  0  0  0
   -1.3033   17.0142   -4.3048 N   0  0  0  0  0  0  0  0  0  0  0  0
    0.7992   16.1316   -3.5363 N   0  0  0  0  0  0  0  0  0  0  0  0
    0.8714   13.7524   -3.4902 N   0  0  0  0  0  0  0  0  0  0  0  0
    1.8268   13.6908   -3.1691 H   0  0  0  0  0  0  0  0  0  0  0  0
    0.0992   20.6347   -5.1904 C   0  0  0  0  0  0  0  0  0  0  0  0
   -1.2411   20.9720   -5.3137 N   0  0  0  0  0  0  0  0  0  0  0  0
    0.7605   21.4412   -4.2900 N   0  0  0  0  0  0  0  0  0  0  0  0
    0.6430   19.7218   -5.8038 O   0  0  0  0  0  0  0  0  0  0  0  0
   -1.5717   21.7563   -4.7717 H   0  0  0  0  0  0  0  0  0  0  0  0
    0.2454   22.0891   -3.7171 H   0  0  0  0  0  0  0  0  0  0  0  0
    2.1297   21.4211   -3.9857 C   0  0  0  0  0  0  0  0  0  0  0  0
    2.6681   20.8141   -2.8556 C   0  0  0  0  0  0  0  0  0  0  0  0
    4.0447   20.8598   -2.6431 C   0  0  0  0  0  0  0  0  0  0  0  0
    4.8515   21.5070   -3.5645 C   0  0  0  0  0  0  0  0  0  0  0  0
    4.2406   22.0752   -4.6688 C   0  0  0  0  0  0  0  0  0  0  0  0
    2.9060   22.0416   -4.9025 N   0  0  0  0  0  0  0  0  0  0  0  0
  7  8  1  0  0  0
  8  9  1  0  0  0
  9 10  1  0  0  0
  9  1  1  0  0  0
 10 12  1  0  0  0
 11 12  1  0  0  0
 11  7  1  0  0  0
 14 19  2  0  0  0
 15 20  2  0  0  0
 16 17  1  0  0  0
 16 13  2  0  0  0
 18 21  1  0  0  0
  2  3  2  0  0  0
  3 24  1  0  0  0
  4  5  2  0  0  0
  6  1  2  0  0  0
 23 25  1  0  0  0
 29 34  2  0  0  0
 30 31  2  0  0  0
 32 33  2  0  0  0
 12 13  1  0  0  0
 21 15  1  0  0  0
 24 23  1  0  0  0
 25 29  1  0  0  0
 13 19  1  0  0  0
 14 20  1  0  0  0
 15 16  1  0  0  0
 17 18  2  0  0  0
  1  2  1  0  0  0
  3  4  1  0  0  0
  5  6  1  0  0  0
 23 26  2  0  0  0
 29 30  1  0  0  0
 31 32  1  0  0  0
 33 34  1  0  0  0
 21 22  1  0  0  0
 24 27  1  0  0  0
 25 28  1  0  0  0
M  END
> <minimizedAffinity>
-9.80895

$$$$
CHEMBL4460419


 34 38  0  0  0  0  0  0  0  0999 V2000
   -1.4017   20.6519   -5.7588 C   0  0  0  0  0  0  0  0  0  0  0  0
   -2.0647   19.4764   -6.1734 C   0  0  0  0  0  0  0  0  0  0  0  0
   -3.4491   19.4589   -6.4103 C   0  0  0  0  0  0  0  0  0  0  0  0
   -4.1686   20.6378   -6.2076 C   0  0  0  0  0  0  0  0  0  0  0  0
   -3.5313   21.8055   -5.7880 C   0  0  0  0  0  0  0  0  0  0  0  0
   -2.1592   21.8140   -5.5658 C   0  0  0  0  0  0  0  0  0  0  0  0
    1.6241   20.9474   -3.5210 C   0  0  0  0  0  0  0  0  0  0  0  0
    0.4902   21.5796   -4.3254 C   0  0  0  0  0  0  0  0  0  0  0  0
    0.1076   20.7148   -5.5443 C   0  0  0  0  0  0  0  0  0  0  0  0
    0.7670   19.3149   -5.5206 C   0  0  0  0  0  0  0  0  0  0  0  0
    1.2103   19.5479   -3.0618 C   0  0  0  0  0  0  0  0  0  0  0  0
    0.7264   18.7401   -4.1724 N   0  0  0  0  0  0  0  0  0  0  0  0
    0.2165   17.4611   -4.0145 C   0  0  0  0  0  0  0  0  0  0  0  0
   -1.7000   16.1029   -3.8736 C   0  0  0  0  0  0  0  0  0  0  0  0
    0.2397   15.1245   -3.4916 C   0  0  0  0  0  0  0  0  0  0  0  0
    0.9632   16.2921   -3.7109 C   0  0  0  0  0  0  0  0  0  0  0  0
    2.3324   15.9298   -3.5106 C   0  0  0  0  0  0  0  0  0  0  0  0
    2.3883   14.5957   -3.1660 C   0  0  0  0  0  0  0  0  0  0  0  0
   -1.1369   17.3025   -4.0964 N   0  0  0  0  0  0  0  0  0  0  0  0
   -1.0868   14.9583   -3.5561 N   0  0  0  0  0  0  0  0  0  0  0  0
    1.1071   14.1192   -3.1669 N   0  0  0  0  0  0  0  0  0  0  0  0
    0.8137   13.1769   -2.9534 H   0  0  0  0  0  0  0  0  0  0  0  0
   -4.5505   17.2337   -6.0609 C   0  0  0  0  0  0  0  0  0  0  0  0
   -4.0397   18.2483   -6.8578 N   0  0  0  0  0  0  0  0  0  0  0  0
   -5.0701   16.1965   -6.8042 N   0  0  0  0  0  0  0  0  0  0  0  0
   -4.5416   17.2456   -4.8341 O   0  0  0  0  0  0  0  0  0  0  0  0
   -4.1213   18.1359   -7.8573 H   0  0  0  0  0  0  0  0  0  0  0  0
   -4.9378   16.1725   -7.8018 H   0  0  0  0  0  0  0  0  0  0  0  0
   -5.7274   15.0563   -6.3187 C   0  0  0  0  0  0  0  0  0  0  0  0
   -6.9928   15.0730   -5.7408 C   0  0  0  0  0  0  0  0  0  0  0  0
   -7.5524   13.8819   -5.2819 C   0  0  0  0  0  0  0  0  0  0  0  0
   -6.8378   12.7026   -5.4132 C   0  0  0  0  0  0  0  0  0  0  0  0
   -5.5909   12.7679   -6.0101 C   0  0  0  0  0  0  0  0  0  0  0  0
   -5.0251   13.9107   -6.4693 N   0  0  0  0  0  0  0  0  0  0  0  0
  7  8  1  0  0  0
  8  9  1  0  0  0
  9 10  1  0  0  0
  9  1  1  0  0  0
 10 12  1  0  0  0
 11 12  1  0  0  0
 11  7  1  0  0  0
 14 19  2  0  0  0
 15 20  2  0  0  0
 16 17  1  0  0  0
 16 13  2  0  0  0
 18 21  1  0  0  0
  2  3  2  0  0  0
  3 24  1  0  0  0
  4  5  2  0  0  0
  6  1  2  0  0  0
 23 25  1  0  0  0
 29 34  2  0  0  0
 30 31  2  0  0  0
 32 33  2  0  0  0
 12 13  1  0  0  0
 21 15  1  0  0  0
 24 23  1  0  0  0
 25 29  1  0  0  0
 13 19  1  0  0  0
 14 20  1  0  0  0
 15 16  1  0  0  0
 17 18  2  0  0  0
  1  2  1  0  0  0
  3  4  1  0  0  0
  5  6  1  0  0  0
 23 26  2  0  0  0
 29 30  1  0  0  0
 31 32  1  0  0  0
 33 34  1  0  0  0
 21 22  1  0  0  0
 24 27  1  0  0  0
 25 28  1  0  0  0
M  END
> <minimizedAffinity>
-9.76141

$$$$
CHEMBL4460419


 34 38  0  0  0  0  0  0  0  0999 V2000
   -2.5223   15.2918   -5.6359 C   0  0  0  0  0  0  0  0  0  0  0  0
   -3.8851   15.5569   -5.8926 C   0  0  0  0  0  0  0  0  0  0  0  0
   -4.3917   15.5950   -7.2022 C   0  0  0  0  0  0  0  0  0  0  0  0
   -3.5058   15.3807   -8.2594 C   0  0  0  0  0  0  0  0  0  0  0  0
   -2.1543   15.1279   -8.0244 C   0  0  0  0  0  0  0  0  0  0  0  0
   -1.6655   15.0828   -6.7239 C   0  0  0  0  0  0  0  0  0  0  0  0
    0.3378   14.7106   -3.2417 C   0  0  0  0  0  0  0  0  0  0  0  0
   -0.7876   14.1866   -4.1313 C   0  0  0  0  0  0  0  0  0  0  0  0
   -1.9538   15.1923   -4.2235 C   0  0  0  0  0  0  0  0  0  0  0  0
   -1.6067   16.5744   -3.6200 C   0  0  0  0  0  0  0  0  0  0  0  0
    0.8414   16.0493   -3.7849 C   0  0  0  0  0  0  0  0  0  0  0  0
   -0.2520   16.9863   -4.0005 N   0  0  0  0  0  0  0  0  0  0  0  0
   -0.0759   18.2417   -4.5608 C   0  0  0  0  0  0  0  0  0  0  0  0
    1.2089   20.2120   -4.6266 C   0  0  0  0  0  0  0  0  0  0  0  0
   -0.6479   20.1981   -5.8172 C   0  0  0  0  0  0  0  0  0  0  0  0
   -0.9658   18.8933   -5.4549 C   0  0  0  0  0  0  0  0  0  0  0  0
   -2.2013   18.6090   -6.1175 C   0  0  0  0  0  0  0  0  0  0  0  0
   -2.5895   19.7285   -6.8231 C   0  0  0  0  0  0  0  0  0  0  0  0
    1.0225   18.9579   -4.1813 N   0  0  0  0  0  0  0  0  0  0  0  0
    0.4179   20.9158   -5.4427 N   0  0  0  0  0  0  0  0  0  0  0  0
   -1.6292   20.6831   -6.6359 N   0  0  0  0  0  0  0  0  0  0  0  0
   -1.6234   21.6166   -7.0208 H   0  0  0  0  0  0  0  0  0  0  0  0
   -6.3574   16.9486   -7.9705 C   0  0  0  0  0  0  0  0  0  0  0  0
   -5.7795   15.8340   -7.3797 N   0  0  0  0  0  0  0  0  0  0  0  0
   -7.7326   16.8687   -8.0038 N   0  0  0  0  0  0  0  0  0  0  0  0
   -5.7268   17.9041   -8.4116 O   0  0  0  0  0  0  0  0  0  0  0  0
   -6.4003   15.1006   -7.0714 H   0  0  0  0  0  0  0  0  0  0  0  0
   -8.2088   16.1289   -7.5147 H   0  0  0  0  0  0  0  0  0  0  0  0
   -8.6173   17.7832   -8.5944 C   0  0  0  0  0  0  0  0  0  0  0  0
   -8.4080   19.1580   -8.6302 C   0  0  0  0  0  0  0  0  0  0  0  0
   -9.3566   19.9802   -9.2357 C   0  0  0  0  0  0  0  0  0  0  0  0
  -10.4895   19.4110   -9.7936 C   0  0  0  0  0  0  0  0  0  0  0  0
  -10.6181   18.0345   -9.7276 C   0  0  0  0  0  0  0  0  0  0  0  0
   -9.7096   17.2114   -9.1496 N   0  0  0  0  0  0  0  0  0  0  0  0
  7  8  1  0  0  0
  8  9  1  0  0  0
  9 10  1  0  0  0
  9  1  1  0  0  0
 10 12  1  0  0  0
 11 12  1  0  0  0
 11  7  1  0  0  0
 14 19  2  0  0  0
 15 20  2  0  0  0
 16 17  1  0  0  0
 16 13  2  0  0  0
 18 21  1  0  0  0
  2  3  2  0  0  0
  3 24  1  0  0  0
  4  5  2  0  0  0
  6  1  2  0  0  0
 23 25  1  0  0  0
 29 34  2  0  0  0
 30 31  2  0  0  0
 32 33  2  0  0  0
 12 13  1  0  0  0
 21 15  1  0  0  0
 24 23  1  0  0  0
 25 29  1  0  0  0
 13 19  1  0  0  0
 14 20  1  0  0  0
 15 16  1  0  0  0
 17 18  2  0  0  0
  1  2  1  0  0  0
  3  4  1  0  0  0
  5  6  1  0  0  0
 23 26  2  0  0  0
 29 30  1  0  0  0
 31 32  1  0  0  0
 33 34  1  0  0  0
 21 22  1  0  0  0
 24 27  1  0  0  0
 25 28  1  0  0  0
M  END
> <minimizedAffinity>
-9.63152

$$$$
CHEMBL78377


 29 32  0  0  0  0  0  0  0  0999 V2000
   -7.0945   20.1065   -8.8900 C   0  0  0  0  0  0  0  0  0  0  0  0
   -6.1418   19.1007   -8.3525 C   0  0  0  0  0  0  0  0  0  0  0  0
   -5.5054   17.0959   -7.5678 C   0  0  0  0  0  0  0  0  0  0  0  0
   -4.4263   15.3166   -6.7716 C   0  0  0  0  0  0  0  0  0  0  0  0
   -3.1691   17.2569   -7.2014 C   0  0  0  0  0  0  0  0  0  0  0  0
   -4.3644   17.8791   -7.6155 C   0  0  0  0  0  0  0  0  0  0  0  0
   -4.7752   19.1726   -8.1016 C   0  0  0  0  0  0  0  0  0  0  0  0
   -3.9081   20.3651   -8.3128 C   0  0  0  0  0  0  0  0  0  0  0  0
   -6.5585   17.8369   -8.0169 N   0  0  0  0  0  0  0  0  0  0  0  0
   -5.6094   15.8253   -7.1617 N   0  0  0  0  0  0  0  0  0  0  0  0
   -3.2410   15.9681   -6.7804 N   0  0  0  0  0  0  0  0  0  0  0  0
   -7.5000   17.4799   -8.0846 H   0  0  0  0  0  0  0  0  0  0  0  0
   -4.4238   13.9191   -6.2763 C   0  0  0  0  0  0  0  0  0  0  0  0
   -5.6227   13.2149   -6.0474 C   0  0  0  0  0  0  0  0  0  0  0  0
   -5.6221   11.8949   -5.5828 C   0  0  0  0  0  0  0  0  0  0  0  0
   -4.4179   11.2439   -5.3344 C   0  0  0  0  0  0  0  0  0  0  0  0
   -3.2164   11.9108   -5.5505 C   0  0  0  0  0  0  0  0  0  0  0  0
   -3.2218   13.2305   -6.0157 C   0  0  0  0  0  0  0  0  0  0  0  0
   -1.9500   17.8989   -7.2016 N   0  0  0  0  0  0  0  0  0  0  0  0
   -1.4516   18.0137   -8.0732 H   0  0  0  0  0  0  0  0  0  0  0  0
   -1.4398   18.5839   -6.0344 C   0  0  0  0  0  0  0  0  0  0  0  0
   -0.0575   18.0748   -5.6258 C   0  0  0  0  0  0  0  0  0  0  0  0
    0.1162   17.9183   -4.1167 C   0  0  0  0  0  0  0  0  0  0  0  0
    1.9360   16.2824   -3.4547 C   0  0  0  0  0  0  0  0  0  0  0  0
    1.9468   14.8263   -3.0298 C   0  0  0  0  0  0  0  0  0  0  0  0
    0.5693   14.2742   -3.3736 C   0  0  0  0  0  0  0  0  0  0  0  0
   -0.2764   15.4873   -3.6593 C   0  0  0  0  0  0  0  0  0  0  0  0
    0.5551   16.5904   -3.7142 N   0  0  0  0  0  0  0  0  0  0  0  0
   -1.4819   15.4743   -3.8398 O   0  0  0  0  0  0  0  0  0  0  0  0
  1  2  1  0  0  0
  2  9  1  0  0  0
  4 10  2  0  0  0
  4 13  1  0  0  0
 14 15  2  0  0  0
 16 17  2  0  0  0
 18 13  2  0  0  0
  5 11  2  0  0  0
  5 19  1  0  0  0
 21 19  1  0  0  0
 21 22  1  0  0  0
 22 23  1  0  0  0
 23 28  1  0  0  0
 24 28  1  0  0  0
 24 25  1  0  0  0
 25 26  1  0  0  0
 26 27  1  0  0  0
 27 28  1  0  0  0
  6  7  1  0  0  0
  6  3  2  0  0  0
  8  7  1  0  0  0
  9  3  1  0  0  0
  3 10  1  0  0  0
  4 11  1  0  0  0
 13 14  1  0  0  0
 15 16  1  0  0  0
 17 18  1  0  0  0
  5  6  1  0  0  0
 27 29  2  0  0  0
  7  2  2  0  0  0
  9 12  1  0  0  0
 19 20  1  0  0  0
M  END
> <minimizedAffinity>
-9.21236

$$$$
CHEMBL78377


 29 32  0  0  0  0  0  0  0  0999 V2000
    4.9773   21.3431   -1.1464 C   0  0  0  0  0  0  0  0  0  0  0  0
    3.9678   20.4631   -1.7905 C   0  0  0  0  0  0  0  0  0  0  0  0
    3.0009   18.5119   -2.3360 C   0  0  0  0  0  0  0  0  0  0  0  0
    1.7118   16.8656   -3.1055 C   0  0  0  0  0  0  0  0  0  0  0  0
    1.0676   19.0755   -3.5863 C   0  0  0  0  0  0  0  0  0  0  0  0
    2.2109   19.5083   -2.8842 C   0  0  0  0  0  0  0  0  0  0  0  0
    2.8411   20.7611   -2.5504 C   0  0  0  0  0  0  0  0  0  0  0  0
    2.3768   22.1247   -2.9295 C   0  0  0  0  0  0  0  0  0  0  0  0
    4.0435   19.0973   -1.6802 N   0  0  0  0  0  0  0  0  0  0  0  0
    2.8154   17.1887   -2.4067 N   0  0  0  0  0  0  0  0  0  0  0  0
    0.8521   17.7383   -3.6790 N   0  0  0  0  0  0  0  0  0  0  0  0
    4.7544   18.5753   -1.1896 H   0  0  0  0  0  0  0  0  0  0  0  0
    1.4178   15.4218   -3.2716 C   0  0  0  0  0  0  0  0  0  0  0  0
    2.4444   14.4567   -3.2894 C   0  0  0  0  0  0  0  0  0  0  0  0
    2.1685   13.0935   -3.4431 C   0  0  0  0  0  0  0  0  0  0  0  0
    0.8539   12.6598   -3.5837 C   0  0  0  0  0  0  0  0  0  0  0  0
   -0.1830   13.5870   -3.5699 C   0  0  0  0  0  0  0  0  0  0  0  0
    0.0976   14.9492   -3.4154 C   0  0  0  0  0  0  0  0  0  0  0  0
    0.1773   19.9443   -4.1785 N   0  0  0  0  0  0  0  0  0  0  0  0
   -0.2862   20.6404   -3.6112 H   0  0  0  0  0  0  0  0  0  0  0  0
    0.0195   20.0260   -5.6139 C   0  0  0  0  0  0  0  0  0  0  0  0
   -1.4421   19.8924   -6.0414 C   0  0  0  0  0  0  0  0  0  0  0  0
   -1.7089   18.6896   -6.9437 C   0  0  0  0  0  0  0  0  0  0  0  0
   -2.6448   17.6003   -4.8549 C   0  0  0  0  0  0  0  0  0  0  0  0
   -3.1887   16.2213   -4.5333 C   0  0  0  0  0  0  0  0  0  0  0  0
   -2.7851   15.3247   -5.6966 C   0  0  0  0  0  0  0  0  0  0  0  0
   -2.3343   16.2701   -6.7790 C   0  0  0  0  0  0  0  0  0  0  0  0
   -2.2533   17.5395   -6.2376 N   0  0  0  0  0  0  0  0  0  0  0  0
   -2.0618   15.9472   -7.9225 O   0  0  0  0  0  0  0  0  0  0  0  0
  1  2  1  0  0  0
  2  9  1  0  0  0
  4 10  2  0  0  0
  4 13  1  0  0  0
 14 15  2  0  0  0
 16 17  2  0  0  0
 18 13  2  0  0  0
  5 11  2  0  0  0
  5 19  1  0  0  0
 21 19  1  0  0  0
 21 22  1  0  0  0
 22 23  1  0  0  0
 23 28  1  0  0  0
 24 28  1  0  0  0
 24 25  1  0  0  0
 25 26  1  0  0  0
 26 27  1  0  0  0
 27 28  1  0  0  0
  6  7  1  0  0  0
  6  3  2  0  0  0
  8  7  1  0  0  0
  9  3  1  0  0  0
  3 10  1  0  0  0
  4 11  1  0  0  0
 13 14  1  0  0  0
 15 16  1  0  0  0
 17 18  1  0  0  0
  5  6  1  0  0  0
 27 29  2  0  0  0
  7  2  2  0  0  0
  9 12  1  0  0  0
 19 20  1  0  0  0
M  END
> <minimizedAffinity>
-9.16970

$$$$
CHEMBL78377


 29 32  0  0  0  0  0  0  0  0999 V2000
    3.9403   18.8384   -1.9115 C   0  0  0  0  0  0  0  0  0  0  0  0
    2.7488   18.2478   -2.5746 C   0  0  0  0  0  0  0  0  0  0  0  0
    1.4066   16.5920   -3.2794 C   0  0  0  0  0  0  0  0  0  0  0  0
   -0.2085   15.3212   -4.1400 C   0  0  0  0  0  0  0  0  0  0  0  0
   -0.4599   17.6550   -4.2817 C   0  0  0  0  0  0  0  0  0  0  0  0
    0.7835   17.7782   -3.6289 C   0  0  0  0  0  0  0  0  0  0  0  0
    1.6535   18.8420   -3.1934 C   0  0  0  0  0  0  0  0  0  0  0  0
    1.4279   20.3052   -3.3567 C   0  0  0  0  0  0  0  0  0  0  0  0
    2.5768   16.8881   -2.6447 N   0  0  0  0  0  0  0  0  0  0  0  0
    0.9755   15.3449   -3.5011 N   0  0  0  0  0  0  0  0  0  0  0  0
   -0.9244   16.4026   -4.5243 N   0  0  0  0  0  0  0  0  0  0  0  0
    3.2068   16.1862   -2.2855 H   0  0  0  0  0  0  0  0  0  0  0  0
   -0.7741   13.9890   -4.4621 C   0  0  0  0  0  0  0  0  0  0  0  0
   -0.1734   12.8008   -4.0004 C   0  0  0  0  0  0  0  0  0  0  0  0
   -0.7076   11.5428   -4.3009 C   0  0  0  0  0  0  0  0  0  0  0  0
   -1.8600   11.4414   -5.0739 C   0  0  0  0  0  0  0  0  0  0  0  0
   -2.4778   12.5953   -5.5450 C   0  0  0  0  0  0  0  0  0  0  0  0
   -1.9404   13.8511   -5.2416 C   0  0  0  0  0  0  0  0  0  0  0  0
   -1.2077   18.7406   -4.6824 N   0  0  0  0  0  0  0  0  0  0  0  0
   -1.8732   19.1472   -4.0397 H   0  0  0  0  0  0  0  0  0  0  0  0
   -0.9456   19.4423   -5.9196 C   0  0  0  0  0  0  0  0  0  0  0  0
   -2.0253   19.1817   -6.9699 C   0  0  0  0  0  0  0  0  0  0  0  0
   -3.3832   18.8158   -6.3747 C   0  0  0  0  0  0  0  0  0  0  0  0
   -3.2498   16.6891   -7.7479 C   0  0  0  0  0  0  0  0  0  0  0  0
   -3.9049   15.3244   -7.6518 C   0  0  0  0  0  0  0  0  0  0  0  0
   -5.0524   15.4739   -6.6614 C   0  0  0  0  0  0  0  0  0  0  0  0
   -4.8098   16.7954   -5.9806 C   0  0  0  0  0  0  0  0  0  0  0  0
   -3.7928   17.4472   -6.6528 N   0  0  0  0  0  0  0  0  0  0  0  0
   -5.4350   17.2147   -5.0218 O   0  0  0  0  0  0  0  0  0  0  0  0
  1  2  1  0  0  0
  2  9  1  0  0  0
  4 10  2  0  0  0
  4 13  1  0  0  0
 14 15  2  0  0  0
 16 17  2  0  0  0
 18 13  2  0  0  0
  5 11  2  0  0  0
  5 19  1  0  0  0
 21 19  1  0  0  0
 21 22  1  0  0  0
 22 23  1  0  0  0
 23 28  1  0  0  0
 24 28  1  0  0  0
 24 25  1  0  0  0
 25 26  1  0  0  0
 26 27  1  0  0  0
 27 28  1  0  0  0
  6  7  1  0  0  0
  6  3  2  0  0  0
  8  7  1  0  0  0
  9  3  1  0  0  0
  3 10  1  0  0  0
  4 11  1  0  0  0
 13 14  1  0  0  0
 15 16  1  0  0  0
 17 18  1  0  0  0
  5  6  1  0  0  0
 27 29  2  0  0  0
  7  2  2  0  0  0
  9 12  1  0  0  0
 19 20  1  0  0  0
M  END
> <minimizedAffinity>
-9.15135

$$$$
CHEMBL78377


 29 32  0  0  0  0  0  0  0  0999 V2000
   -1.4474   22.9415   -5.9817 C   0  0  0  0  0  0  0  0  0  0  0  0
   -1.3598   21.4582   -5.9675 C   0  0  0  0  0  0  0  0  0  0  0  0
   -0.6514   19.4545   -5.2441 C   0  0  0  0  0  0  0  0  0  0  0  0
   -0.2532   17.2935   -4.8757 C   0  0  0  0  0  0  0  0  0  0  0  0
   -1.8039   17.8498   -6.5537 C   0  0  0  0  0  0  0  0  0  0  0  0
   -1.5591   19.2067   -6.2601 C   0  0  0  0  0  0  0  0  0  0  0  0
   -2.0006   20.4931   -6.7381 C   0  0  0  0  0  0  0  0  0  0  0  0
   -2.9695   20.7536   -7.8389 C   0  0  0  0  0  0  0  0  0  0  0  0
   -0.5471   20.8039   -5.0760 N   0  0  0  0  0  0  0  0  0  0  0  0
    0.0304   18.5598   -4.5196 N   0  0  0  0  0  0  0  0  0  0  0  0
   -1.1255   16.9165   -5.8382 N   0  0  0  0  0  0  0  0  0  0  0  0
    0.0496   21.2329   -4.3844 H   0  0  0  0  0  0  0  0  0  0  0  0
    0.4642   16.2141   -4.1556 C   0  0  0  0  0  0  0  0  0  0  0  0
   -0.0670   14.9126   -4.0575 C   0  0  0  0  0  0  0  0  0  0  0  0
    0.6102   13.8919   -3.3808 C   0  0  0  0  0  0  0  0  0  0  0  0
    1.8400   14.1485   -2.7829 C   0  0  0  0  0  0  0  0  0  0  0  0
    2.3924   15.4227   -2.8619 C   0  0  0  0  0  0  0  0  0  0  0  0
    1.7119   16.4401   -3.5400 C   0  0  0  0  0  0  0  0  0  0  0  0
   -2.6874   17.4407   -7.5285 N   0  0  0  0  0  0  0  0  0  0  0  0
   -2.3485   17.2783   -8.4666 H   0  0  0  0  0  0  0  0  0  0  0  0
   -4.0460   17.0504   -7.2224 C   0  0  0  0  0  0  0  0  0  0  0  0
   -4.3053   15.5757   -7.5305 C   0  0  0  0  0  0  0  0  0  0  0  0
   -5.1795   14.8773   -6.4912 C   0  0  0  0  0  0  0  0  0  0  0  0
   -3.2493   13.3093   -5.9994 C   0  0  0  0  0  0  0  0  0  0  0  0
   -3.1460   11.8909   -5.4717 C   0  0  0  0  0  0  0  0  0  0  0  0
   -4.5499   11.3053   -5.5526 C   0  0  0  0  0  0  0  0  0  0  0  0
   -5.4517   12.4872   -5.7940 C   0  0  0  0  0  0  0  0  0  0  0  0
   -4.6591   13.5876   -6.0624 N   0  0  0  0  0  0  0  0  0  0  0  0
   -6.6702   12.4528   -5.7820 O   0  0  0  0  0  0  0  0  0  0  0  0
  1  2  1  0  0  0
  2  9  1  0  0  0
  4 10  2  0  0  0
  4 13  1  0  0  0
 14 15  2  0  0  0
 16 17  2  0  0  0
 18 13  2  0  0  0
  5 11  2  0  0  0
  5 19  1  0  0  0
 21 19  1  0  0  0
 21 22  1  0  0  0
 22 23  1  0  0  0
 23 28  1  0  0  0
 24 28  1  0  0  0
 24 25  1  0  0  0
 25 26  1  0  0  0
 26 27  1  0  0  0
 27 28  1  0  0  0
  6  7  1  0  0  0
  6  3  2  0  0  0
  8  7  1  0  0  0
  9  3  1  0  0  0
  3 10  1  0  0  0
  4 11  1  0  0  0
 13 14  1  0  0  0
 15 16  1  0  0  0
 17 18  1  0  0  0
  5  6  1  0  0  0
 27 29  2  0  0  0
  7  2  2  0  0  0
  9 12  1  0  0  0
 19 20  1  0  0  0
M  END
> <minimizedAffinity>
-9.14480

$$$$
CHEMBL78377


 29 32  0  0  0  0  0  0  0  0999 V2000
   -4.4981    9.9533   -6.0755 C   0  0  0  0  0  0  0  0  0  0  0  0
   -3.9657   11.2984   -5.7356 C   0  0  0  0  0  0  0  0  0  0  0  0
   -2.4149   12.7809   -5.0746 C   0  0  0  0  0  0  0  0  0  0  0  0
   -1.2364   14.5817   -4.4978 C   0  0  0  0  0  0  0  0  0  0  0  0
   -3.4548   14.9068   -5.2070 C   0  0  0  0  0  0  0  0  0  0  0  0
   -3.5543   13.5101   -5.3703 C   0  0  0  0  0  0  0  0  0  0  0  0
   -4.5567   12.5572   -5.7770 C   0  0  0  0  0  0  0  0  0  0  0  0
   -5.9596   12.8525   -6.1808 C   0  0  0  0  0  0  0  0  0  0  0  0
   -2.6734   11.4616   -5.3035 N   0  0  0  0  0  0  0  0  0  0  0  0
   -1.2374   13.2434   -4.6387 N   0  0  0  0  0  0  0  0  0  0  0  0
   -2.2737   15.4081   -4.7630 N   0  0  0  0  0  0  0  0  0  0  0  0
   -1.9912   10.7303   -5.1680 H   0  0  0  0  0  0  0  0  0  0  0  0
    0.0112   15.2056   -3.9953 C   0  0  0  0  0  0  0  0  0  0  0  0
    1.0678   14.4300   -3.4778 C   0  0  0  0  0  0  0  0  0  0  0  0
    2.2473   15.0170   -3.0059 C   0  0  0  0  0  0  0  0  0  0  0  0
    2.3998   16.3995   -3.0397 C   0  0  0  0  0  0  0  0  0  0  0  0
    1.3757   17.1939   -3.5449 C   0  0  0  0  0  0  0  0  0  0  0  0
    0.1983   16.6025   -4.0162 C   0  0  0  0  0  0  0  0  0  0  0  0
   -4.4965   15.7691   -5.4706 N   0  0  0  0  0  0  0  0  0  0  0  0
   -4.9215   16.2790   -4.7086 H   0  0  0  0  0  0  0  0  0  0  0  0
   -4.8843   16.1194   -6.8192 C   0  0  0  0  0  0  0  0  0  0  0  0
   -3.7916   16.9010   -7.5485 C   0  0  0  0  0  0  0  0  0  0  0  0
   -4.0472   18.4056   -7.6030 C   0  0  0  0  0  0  0  0  0  0  0  0
   -2.1284   18.7648   -5.9858 C   0  0  0  0  0  0  0  0  0  0  0  0
   -1.0919   19.8564   -5.7992 C   0  0  0  0  0  0  0  0  0  0  0  0
   -1.5722   21.0427   -6.6251 C   0  0  0  0  0  0  0  0  0  0  0  0
   -2.6594   20.4883   -7.5078 C   0  0  0  0  0  0  0  0  0  0  0  0
   -2.9464   19.2039   -7.0845 N   0  0  0  0  0  0  0  0  0  0  0  0
   -3.2029   21.0948   -8.4148 O   0  0  0  0  0  0  0  0  0  0  0  0
  1  2  1  0  0  0
  2  9  1  0  0  0
  4 10  2  0  0  0
  4 13  1  0  0  0
 14 15  2  0  0  0
 16 17  2  0  0  0
 18 13  2  0  0  0
  5 11  2  0  0  0
  5 19  1  0  0  0
 21 19  1  0  0  0
 21 22  1  0  0  0
 22 23  1  0  0  0
 23 28  1  0  0  0
 24 28  1  0  0  0
 24 25  1  0  0  0
 25 26  1  0  0  0
 26 27  1  0  0  0
 27 28  1  0  0  0
  6  7  1  0  0  0
  6  3  2  0  0  0
  8  7  1  0  0  0
  9  3  1  0  0  0
  3 10  1  0  0  0
  4 11  1  0  0  0
 13 14  1  0  0  0
 15 16  1  0  0  0
 17 18  1  0  0  0
  5  6  1  0  0  0
 27 29  2  0  0  0
  7  2  2  0  0  0
  9 12  1  0  0  0
 19 20  1  0  0  0
M  END
> <minimizedAffinity>
-8.90150

$$$$
CHEMBL78377


 29 32  0  0  0  0  0  0  0  0999 V2000
   -0.3539   11.4977   -3.8594 C   0  0  0  0  0  0  0  0  0  0  0  0
   -0.2926   12.9791   -3.9582 C   0  0  0  0  0  0  0  0  0  0  0  0
    0.5436   15.0256   -3.5676 C   0  0  0  0  0  0  0  0  0  0  0  0
    1.0032   17.2037   -3.4733 C   0  0  0  0  0  0  0  0  0  0  0  0
   -0.8193   16.5263   -4.7960 C   0  0  0  0  0  0  0  0  0  0  0  0
   -0.5415   15.1991   -4.4101 C   0  0  0  0  0  0  0  0  0  0  0  0
   -1.0906   13.8873   -4.6466 C   0  0  0  0  0  0  0  0  0  0  0  0
   -2.2792   13.5523   -5.4795 C   0  0  0  0  0  0  0  0  0  0  0  0
    0.6842   13.6936   -3.3110 N   0  0  0  0  0  0  0  0  0  0  0  0
    1.3490   15.9688   -3.0656 N   0  0  0  0  0  0  0  0  0  0  0  0
   -0.0221   17.5077   -4.3014 N   0  0  0  0  0  0  0  0  0  0  0  0
    1.4141   13.3147   -2.7260 H   0  0  0  0  0  0  0  0  0  0  0  0
    1.8122   18.3346   -2.9587 C   0  0  0  0  0  0  0  0  0  0  0  0
    1.3351   19.6601   -2.9946 C   0  0  0  0  0  0  0  0  0  0  0  0
    2.0961   20.7283   -2.5066 C   0  0  0  0  0  0  0  0  0  0  0  0
    3.3582   20.4966   -1.9688 C   0  0  0  0  0  0  0  0  0  0  0  0
    3.8585   19.1996   -1.9182 C   0  0  0  0  0  0  0  0  0  0  0  0
    3.0938   18.1345   -2.4068 C   0  0  0  0  0  0  0  0  0  0  0  0
   -1.8570   16.8611   -5.6382 N   0  0  0  0  0  0  0  0  0  0  0  0
   -1.9017   16.4446   -6.5579 H   0  0  0  0  0  0  0  0  0  0  0  0
   -2.9908   17.6402   -5.1918 C   0  0  0  0  0  0  0  0  0  0  0  0
   -4.1676   16.7582   -4.7744 C   0  0  0  0  0  0  0  0  0  0  0  0
   -4.8357   16.0353   -5.9420 C   0  0  0  0  0  0  0  0  0  0  0  0
   -7.1007   15.9786   -4.8052 C   0  0  0  0  0  0  0  0  0  0  0  0
   -8.2006   14.9406   -4.6883 C   0  0  0  0  0  0  0  0  0  0  0  0
   -7.5908   13.6232   -5.1499 C   0  0  0  0  0  0  0  0  0  0  0  0
   -6.2995   14.0065   -5.8236 C   0  0  0  0  0  0  0  0  0  0  0  0
   -6.0640   15.3460   -5.5759 N   0  0  0  0  0  0  0  0  0  0  0  0
   -5.5825   13.2445   -6.4491 O   0  0  0  0  0  0  0  0  0  0  0  0
  1  2  1  0  0  0
  2  9  1  0  0  0
  4 10  2  0  0  0
  4 13  1  0  0  0
 14 15  2  0  0  0
 16 17  2  0  0  0
 18 13  2  0  0  0
  5 11  2  0  0  0
  5 19  1  0  0  0
 21 19  1  0  0  0
 21 22  1  0  0  0
 22 23  1  0  0  0
 23 28  1  0  0  0
 24 28  1  0  0  0
 24 25  1  0  0  0
 25 26  1  0  0  0
 26 27  1  0  0  0
 27 28  1  0  0  0
  6  7  1  0  0  0
  6  3  2  0  0  0
  8  7  1  0  0  0
  9  3  1  0  0  0
  3 10  1  0  0  0
  4 11  1  0  0  0
 13 14  1  0  0  0
 15 16  1  0  0  0
 17 18  1  0  0  0
  5  6  1  0  0  0
 27 29  2  0  0  0
  7  2  2  0  0  0
  9 12  1  0  0  0
 19 20  1  0  0  0
M  END
> <minimizedAffinity>
-8.89866

$$$$
CHEMBL78377


 29 32  0  0  0  0  0  0  0  0999 V2000
   -0.7075   11.6223   -4.1205 C   0  0  0  0  0  0  0  0  0  0  0  0
   -0.5998   13.1043   -4.1281 C   0  0  0  0  0  0  0  0  0  0  0  0
    0.3417   15.0924   -3.6794 C   0  0  0  0  0  0  0  0  0  0  0  0
    0.8880   17.2436   -3.4842 C   0  0  0  0  0  0  0  0  0  0  0  0
   -1.0631   16.7149   -4.6857 C   0  0  0  0  0  0  0  0  0  0  0  0
   -0.8033   15.3565   -4.4120 C   0  0  0  0  0  0  0  0  0  0  0  0
   -1.4186   14.0817   -4.6846 C   0  0  0  0  0  0  0  0  0  0  0  0
   -2.6847   13.8414   -5.4316 C   0  0  0  0  0  0  0  0  0  0  0  0
    0.4539   13.7423   -3.5228 N   0  0  0  0  0  0  0  0  0  0  0  0
    1.2209   15.9737   -3.1889 N   0  0  0  0  0  0  0  0  0  0  0  0
   -0.1913   17.6350   -4.1993 N   0  0  0  0  0  0  0  0  0  0  0  0
    1.2158   13.3019   -3.0288 H   0  0  0  0  0  0  0  0  0  0  0  0
    1.7789   18.3111   -2.9693 C   0  0  0  0  0  0  0  0  0  0  0  0
    1.4010   19.6682   -3.0036 C   0  0  0  0  0  0  0  0  0  0  0  0
    2.2393   20.6767   -2.5153 C   0  0  0  0  0  0  0  0  0  0  0  0
    3.4813   20.3519   -1.9787 C   0  0  0  0  0  0  0  0  0  0  0  0
    3.8842   19.0213   -1.9296 C   0  0  0  0  0  0  0  0  0  0  0  0
    3.0425   18.0162   -2.4186 C   0  0  0  0  0  0  0  0  0  0  0  0
   -2.1549   17.1384   -5.4115 N   0  0  0  0  0  0  0  0  0  0  0  0
   -2.9719   17.4781   -4.9233 H   0  0  0  0  0  0  0  0  0  0  0  0
   -2.1108   17.2955   -6.8486 C   0  0  0  0  0  0  0  0  0  0  0  0
   -3.4078   16.8411   -7.5181 C   0  0  0  0  0  0  0  0  0  0  0  0
   -4.6120   17.7165   -7.1780 C   0  0  0  0  0  0  0  0  0  0  0  0
   -6.9663   16.7787   -7.2378 C   0  0  0  0  0  0  0  0  0  0  0  0
   -7.7991   15.9476   -6.2804 C   0  0  0  0  0  0  0  0  0  0  0  0
   -7.0688   15.9815   -4.9441 C   0  0  0  0  0  0  0  0  0  0  0  0
   -5.7021   16.5296   -5.2608 C   0  0  0  0  0  0  0  0  0  0  0  0
   -5.7113   16.9850   -6.5661 N   0  0  0  0  0  0  0  0  0  0  0  0
   -4.7698   16.5829   -4.4773 O   0  0  0  0  0  0  0  0  0  0  0  0
  1  2  1  0  0  0
  2  9  1  0  0  0
  4 10  2  0  0  0
  4 13  1  0  0  0
 14 15  2  0  0  0
 16 17  2  0  0  0
 18 13  2  0  0  0
  5 11  2  0  0  0
  5 19  1  0  0  0
 21 19  1  0  0  0
 21 22  1  0  0  0
 22 23  1  0  0  0
 23 28  1  0  0  0
 24 28  1  0  0  0
 24 25  1  0  0  0
 25 26  1  0  0  0
 26 27  1  0  0  0
 27 28  1  0  0  0
  6  7  1  0  0  0
  6  3  2  0  0  0
  8  7  1  0  0  0
  9  3  1  0  0  0
  3 10  1  0  0  0
  4 11  1  0  0  0
 13 14  1  0  0  0
 15 16  1  0  0  0
 17 18  1  0  0  0
  5  6  1  0  0  0
 27 29  2  0  0  0
  7  2  2  0  0  0
  9 12  1  0  0  0
 19 20  1  0  0  0
M  END
> <minimizedAffinity>
-8.85206

$$$$
CHEMBL78377


 29 32  0  0  0  0  0  0  0  0999 V2000
   -7.5319   17.2859   -8.1132 C   0  0  0  0  0  0  0  0  0  0  0  0
   -6.1415   17.0495   -7.6450 C   0  0  0  0  0  0  0  0  0  0  0  0
   -4.4660   15.8886   -6.7044 C   0  0  0  0  0  0  0  0  0  0  0  0
   -2.5344   15.1348   -5.8889 C   0  0  0  0  0  0  0  0  0  0  0  0
   -2.5406   17.2569   -6.9023 C   0  0  0  0  0  0  0  0  0  0  0  0
   -3.9206   17.0865   -7.1345 C   0  0  0  0  0  0  0  0  0  0  0  0
   -4.9997   17.8406   -7.7220 C   0  0  0  0  0  0  0  0  0  0  0  0
   -4.9182   19.2045   -8.3151 C   0  0  0  0  0  0  0  0  0  0  0  0
   -5.7923   15.8778   -7.0217 N   0  0  0  0  0  0  0  0  0  0  0  0
   -3.8419   14.8818   -6.0822 N   0  0  0  0  0  0  0  0  0  0  0  0
   -1.8782   16.2545   -6.2700 N   0  0  0  0  0  0  0  0  0  0  0  0
   -6.4060   15.1032   -6.8170 H   0  0  0  0  0  0  0  0  0  0  0  0
   -1.7441   14.0971   -5.1840 C   0  0  0  0  0  0  0  0  0  0  0  0
   -1.9745   12.7231   -5.3958 C   0  0  0  0  0  0  0  0  0  0  0  0
   -1.2275   11.7424   -4.7336 C   0  0  0  0  0  0  0  0  0  0  0  0
   -0.2278   12.1128   -3.8395 C   0  0  0  0  0  0  0  0  0  0  0  0
    0.0252   13.4610   -3.6083 C   0  0  0  0  0  0  0  0  0  0  0  0
   -0.7239   14.4382   -4.2730 C   0  0  0  0  0  0  0  0  0  0  0  0
   -1.8499   18.3872   -7.2810 N   0  0  0  0  0  0  0  0  0  0  0  0
   -1.6737   18.5537   -8.2621 H   0  0  0  0  0  0  0  0  0  0  0  0
   -1.5303   19.4441   -6.3468 C   0  0  0  0  0  0  0  0  0  0  0  0
   -0.1169   19.3052   -5.7812 C   0  0  0  0  0  0  0  0  0  0  0  0
    0.5562   20.6423   -5.4793 C   0  0  0  0  0  0  0  0  0  0  0  0
    1.4709   19.6438   -3.3363 C   0  0  0  0  0  0  0  0  0  0  0  0
    2.7335   19.8579   -2.5235 C   0  0  0  0  0  0  0  0  0  0  0  0
    3.3624   21.1423   -3.0479 C   0  0  0  0  0  0  0  0  0  0  0  0
    2.6430   21.4292   -4.3397 C   0  0  0  0  0  0  0  0  0  0  0  0
    1.5695   20.5638   -4.4376 N   0  0  0  0  0  0  0  0  0  0  0  0
    2.9510   22.3006   -5.1346 O   0  0  0  0  0  0  0  0  0  0  0  0
  1  2  1  0  0  0
  2  9  1  0  0  0
  4 10  2  0  0  0
  4 13  1  0  0  0
 14 15  2  0  0  0
 16 17  2  0  0  0
 18 13  2  0  0  0
  5 11  2  0  0  0
  5 19  1  0  0  0
 21 19  1  0  0  0
 21 22  1  0  0  0
 22 23  1  0  0  0
 23 28  1  0  0  0
 24 28  1  0  0  0
 24 25  1  0  0  0
 25 26  1  0  0  0
 26 27  1  0  0  0
 27 28  1  0  0  0
  6  7  1  0  0  0
  6  3  2  0  0  0
  8  7  1  0  0  0
  9  3  1  0  0  0
  3 10  1  0  0  0
  4 11  1  0  0  0
 13 14  1  0  0  0
 15 16  1  0  0  0
 17 18  1  0  0  0
  5  6  1  0  0  0
 27 29  2  0  0  0
  7  2  2  0  0  0
  9 12  1  0  0  0
 19 20  1  0  0  0
M  END
> <minimizedAffinity>
-8.79782

$$$$
CHEMBL78377


 29 32  0  0  0  0  0  0  0  0999 V2000
    2.1310   12.9788   -3.3423 C   0  0  0  0  0  0  0  0  0  0  0  0
    1.8597   14.4395   -3.3113 C   0  0  0  0  0  0  0  0  0  0  0  0
    2.3276   16.6026   -2.9348 C   0  0  0  0  0  0  0  0  0  0  0  0
    2.3381   18.8225   -2.7440 C   0  0  0  0  0  0  0  0  0  0  0  0
    0.4226   17.8121   -3.6604 C   0  0  0  0  0  0  0  0  0  0  0  0
    1.0548   16.5652   -3.4787 C   0  0  0  0  0  0  0  0  0  0  0  0
    0.7459   15.1752   -3.7035 C   0  0  0  0  0  0  0  0  0  0  0  0
   -0.5179   14.6189   -4.2621 C   0  0  0  0  0  0  0  0  0  0  0  0
    2.7987   15.3259   -2.8464 N   0  0  0  0  0  0  0  0  0  0  0  0
    3.0211   17.6797   -2.5484 N   0  0  0  0  0  0  0  0  0  0  0  0
    1.0986   18.9248   -3.2756 N   0  0  0  0  0  0  0  0  0  0  0  0
    3.7134   15.0949   -2.4878 H   0  0  0  0  0  0  0  0  0  0  0  0
    2.9996   20.0827   -2.3283 C   0  0  0  0  0  0  0  0  0  0  0  0
    2.8203   21.2820   -3.0462 C   0  0  0  0  0  0  0  0  0  0  0  0
    3.4414   22.4730   -2.6535 C   0  0  0  0  0  0  0  0  0  0  0  0
    4.2606   22.4941   -1.5292 C   0  0  0  0  0  0  0  0  0  0  0  0
    4.4581   21.3272   -0.7981 C   0  0  0  0  0  0  0  0  0  0  0  0
    3.8346   20.1388   -1.1941 C   0  0  0  0  0  0  0  0  0  0  0  0
   -0.8385   17.9423   -4.1997 N   0  0  0  0  0  0  0  0  0  0  0  0
   -1.6350   17.5928   -3.6852 H   0  0  0  0  0  0  0  0  0  0  0  0
   -1.0914   18.7288   -5.3868 C   0  0  0  0  0  0  0  0  0  0  0  0
   -1.1297   17.8692   -6.6503 C   0  0  0  0  0  0  0  0  0  0  0  0
   -2.5432   17.5220   -7.1124 C   0  0  0  0  0  0  0  0  0  0  0  0
   -2.8660   15.0812   -7.7159 C   0  0  0  0  0  0  0  0  0  0  0  0
   -3.3426   13.8574   -6.9569 C   0  0  0  0  0  0  0  0  0  0  0  0
   -3.9851   14.3761   -5.6770 C   0  0  0  0  0  0  0  0  0  0  0  0
   -3.5600   15.8181   -5.5843 C   0  0  0  0  0  0  0  0  0  0  0  0
   -2.9511   16.1663   -6.7755 N   0  0  0  0  0  0  0  0  0  0  0  0
   -3.7564   16.5462   -4.6265 O   0  0  0  0  0  0  0  0  0  0  0  0
  1  2  1  0  0  0
  2  9  1  0  0  0
  4 10  2  0  0  0
  4 13  1  0  0  0
 14 15  2  0  0  0
 16 17  2  0  0  0
 18 13  2  0  0  0
  5 11  2  0  0  0
  5 19  1  0  0  0
 21 19  1  0  0  0
 21 22  1  0  0  0
 22 23  1  0  0  0
 23 28  1  0  0  0
 24 28  1  0  0  0
 24 25  1  0  0  0
 25 26  1  0  0  0
 26 27  1  0  0  0
 27 28  1  0  0  0
  6  7  1  0  0  0
  6  3  2  0  0  0
  8  7  1  0  0  0
  9  3  1  0  0  0
  3 10  1  0  0  0
  4 11  1  0  0  0
 13 14  1  0  0  0
 15 16  1  0  0  0
 17 18  1  0  0  0
  5  6  1  0  0  0
 27 29  2  0  0  0
  7  2  2  0  0  0
  9 12  1  0  0  0
 19 20  1  0  0  0
M  END
> <minimizedAffinity>
-8.77508

$$$$
