@<TRIPOS>MOLECULE
CHEMBL4285366
 46 50 0 0 0
SMALL
GASTEIGER

@<TRIPOS>ATOM
      1 C         -25.1633   62.9218  -23.0968 C.3     1  UNL1        0.0024
      2 C         -23.7998   64.1870  -24.7630 C.3     1  UNL1        0.0473
      3 C         -22.5341   63.7909  -25.5448 C.3     1  UNL1        0.0341
      4 C         -23.6792   65.4486  -26.8791 C.3     1  UNL1        0.0224
      5 C         -24.4234   65.3077  -25.5752 C.3     1  UNL1        0.0065
      6 C         -24.9087   66.5613  -24.8623 C.3     1  UNL1       -0.0436
      7 C         -25.9044   65.6487  -25.5053 C.3     1  UNL1       -0.0436
      8 C         -21.7433   64.3581  -27.9009 C.2     1  UNL1        0.2468
      9 C         -20.7089   63.3066  -27.8640 C.ar    1  UNL1        0.0398
     10 C         -19.3733   63.6783  -27.9909 C.ar    1  UNL1       -0.0315
     11 C         -18.4278   62.6712  -27.9884 C.ar    1  UNL1        0.0283
     12 C         -20.0394   61.0324  -27.7916 C.ar    1  UNL1        0.0283
     13 C         -21.0617   61.9615  -27.7891 C.ar    1  UNL1       -0.0315
     14 C         -25.2421   62.2624  -25.4750 C.ar    1  UNL1        0.1338
     15 C         -25.3726   61.8081  -27.7851 C.ar    1  UNL1        0.1204
     16 C         -26.5370   60.4933  -26.4541 C.ar    1  UNL1        0.1432
     17 C         -26.1260   61.1593  -25.3031 C.ar    1  UNL1        0.0585
     18 C         -26.7687   60.4707  -24.2244 C.ar    1  UNL1       -0.0318
     19 C         -27.5280   59.4439  -24.7456 C.ar    1  UNL1        0.0042
     20 N         -24.7213   63.0712  -24.4709 N.pl3   1  UNL1       -0.3125
     21 N         -22.5979   64.4857  -26.8273 N.am    1  UNL1       -0.2952
     22 N         -18.7305   61.3582  -27.8785 N.ar    1  UNL1       -0.2632
     23 N         -24.8835   62.5309  -26.7631 N.ar    1  UNL1       -0.2200
     24 N         -26.2018   60.7636  -27.7214 N.ar    1  UNL1       -0.2178
     25 N         -27.3764   59.4728  -26.1037 N.ar    1  UNL1       -0.3457
     26 O         -21.7797   65.0901  -28.8872 O.2     1  UNL1       -0.2700
     27 H         -24.7367   63.6881  -22.4399 H       1  UNL1        0.0428
     28 H         -26.2506   63.0253  -23.0176 H       1  UNL1        0.0428
     29 H         -24.8445   61.9570  -22.6897 H       1  UNL1        0.0428
     30 H         -23.4455   64.6071  -23.8127 H       1  UNL1        0.0521
     31 H         -21.6381   64.1626  -25.0327 H       1  UNL1        0.0483
     32 H         -22.4153   62.7124  -25.6610 H       1  UNL1        0.0483
     33 H         -23.2506   66.4490  -27.0044 H       1  UNL1        0.0471
     34 H         -24.3124   65.2262  -27.7448 H       1  UNL1        0.0471
     35 H         -24.8842   66.5902  -23.7787 H       1  UNL1        0.0272
     36 H         -24.7349   67.5253  -25.3281 H       1  UNL1        0.0272
     37 H         -26.5466   65.0590  -24.8620 H       1  UNL1        0.0272
     38 H         -26.3939   65.9789  -26.4150 H       1  UNL1        0.0272
     39 H         -19.0853   64.7181  -28.0962 H       1  UNL1        0.0640
     40 H         -17.3692   62.8959  -28.0825 H       1  UNL1        0.0830
     41 H         -20.2488   59.9683  -27.7277 H       1  UNL1        0.0830
     42 H         -22.0979   61.6478  -27.7377 H       1  UNL1        0.0640
     43 H         -25.0491   62.1098  -28.7765 H       1  UNL1        0.1048
     44 H         -26.6957   60.6877  -23.1689 H       1  UNL1        0.0640
     45 H         -28.1568   58.7033  -24.2693 H       1  UNL1        0.0807
     46 H         -27.8060   58.8491  -26.7716 H       1  UNL1        0.1668
@<TRIPOS>BOND
     1     1    20    1
     2     2    20    1
     3     2     3    1
     4     3    21    1
     5     4    21    1
     6     4     5    1
     7     5     6    1
     8     5     2    1
     9     6     7    1
    10     7     5    1
    11     8     9    1
    12    10    11   ar
    13    12    22   ar
    14    13     9   ar
    15    15    23   ar
    16    16    24   ar
    17    17    18   ar
    18    17    14   ar
    19    19    25   ar
    20    20    14    1
    21    21     8   am
    22    25    16   ar
    23     8    26    2
    24     9    10   ar
    25    11    22   ar
    26    12    13   ar
    27    14    23   ar
    28    15    24   ar
    29    16    17   ar
    30    18    19   ar
    31     1    27    1
    32     1    28    1
    33     1    29    1
    34     2    30    1
    35     3    31    1
    36     3    32    1
    37     4    33    1
    38     4    34    1
    39     6    35    1
    40     6    36    1
    41     7    37    1
    42     7    38    1
    43    10    39    1
    44    11    40    1
    45    12    41    1
    46    13    42    1
    47    15    43    1
    48    18    44    1
    49    19    45    1
    50    25    46    1
@<TRIPOS>MOLECULE
CHEMBL4293188
 48 52 0 0 0
SMALL
GASTEIGER

@<TRIPOS>ATOM
      1 C         -25.1525   62.8410  -23.1072 C.3     1  UNL1        0.0024
      2 C         -23.9033   64.2776  -24.7230 C.3     1  UNL1        0.0473
      3 C         -22.5625   63.9150  -25.3866 C.3     1  UNL1        0.0341
      4 C         -23.6493   65.4897  -26.8525 C.3     1  UNL1        0.0224
      5 C         -24.4794   65.3719  -25.5986 C.3     1  UNL1        0.0065
      6 C         -25.9573   65.7281  -25.6135 C.3     1  UNL1       -0.0436
      7 C         -24.9874   66.6478  -24.9414 C.3     1  UNL1       -0.0436
      8 C         -21.6495   64.4099  -27.7377 C.2     1  UNL1        0.2467
      9 C         -20.6705   63.2904  -27.7642 C.ar    1  UNL1        0.0381
     10 C         -21.0226   61.9873  -27.3980 C.ar    1  UNL1       -0.0496
     11 C         -20.0965   60.9476  -27.4961 C.ar    1  UNL1       -0.0598
     12 C         -18.8337   61.1890  -28.0350 C.ar    1  UNL1       -0.0443
     13 C         -18.4955   62.4715  -28.4799 C.ar    1  UNL1        0.0525
     14 C         -19.4069   63.5234  -28.3299 C.ar    1  UNL1       -0.0322
     15 C         -17.2341   62.6892  -29.1279 C.1     1  UNL1        0.0992
     16 C         -25.2652   62.3074  -25.5098 C.ar    1  UNL1        0.1338
     17 C         -25.2551   61.8092  -27.8140 C.ar    1  UNL1        0.1204
     18 C         -26.4359   60.4672  -26.5245 C.ar    1  UNL1        0.1432
     19 C         -26.1248   61.1769  -25.3680 C.ar    1  UNL1        0.0585
     20 C         -26.8176   60.4918  -24.3169 C.ar    1  UNL1       -0.0318
     21 C         -27.4860   59.4118  -24.8549 C.ar    1  UNL1        0.0042
     22 N         -24.8032   63.1286  -24.4863 N.pl3   1  UNL1       -0.3125
     23 N         -22.5674   64.5317  -26.7113 N.am    1  UNL1       -0.2952
     24 N         -16.2166   62.8415  -29.6626 N.1     1  UNL1       -0.1909
     25 N         -24.8540   62.5737  -26.7819 N.ar    1  UNL1       -0.2200
     26 N         -26.0359   60.7256  -27.7751 N.ar    1  UNL1       -0.2178
     27 N         -27.2445   59.4129  -26.2000 N.ar    1  UNL1       -0.3457
     28 O         -21.6093   65.2097  -28.6737 O.2     1  UNL1       -0.2700
     29 H         -24.6491   63.5116  -22.4025 H       1  UNL1        0.0428
     30 H         -26.2272   62.9692  -22.9425 H       1  UNL1        0.0428
     31 H         -24.8428   61.8285  -22.8273 H       1  UNL1        0.0428
     32 H         -23.6500   64.7245  -23.7534 H       1  UNL1        0.0521
     33 H         -21.7328   64.3772  -24.8379 H       1  UNL1        0.0483
     34 H         -22.3769   62.8434  -25.3964 H       1  UNL1        0.0483
     35 H         -23.2196   66.4909  -26.9689 H       1  UNL1        0.0471
     36 H         -24.2229   65.2466  -27.7536 H       1  UNL1        0.0471
     37 H         -26.3972   66.0473  -26.5520 H       1  UNL1        0.0272
     38 H         -26.6349   65.1571  -24.9896 H       1  UNL1        0.0272
     39 H         -24.7760   67.5983  -25.4197 H       1  UNL1        0.0272
     40 H         -25.0180   66.7042  -23.8590 H       1  UNL1        0.0272
     41 H         -22.0334   61.7536  -27.0756 H       1  UNL1        0.0625
     42 H         -20.3756   59.9433  -27.1854 H       1  UNL1        0.0618
     43 H         -18.1306   60.3641  -28.1386 H       1  UNL1        0.0630
     44 H         -19.1539   64.5211  -28.6887 H       1  UNL1        0.0638
     45 H         -24.8927   62.1060  -28.7934 H       1  UNL1        0.1048
     46 H         -26.8366   60.7437  -23.2668 H       1  UNL1        0.0640
     47 H         -28.1088   58.6534  -24.3987 H       1  UNL1        0.0807
     48 H         -27.5973   58.7499  -26.8752 H       1  UNL1        0.1668
@<TRIPOS>BOND
     1     1    22    1
     2     2    22    1
     3     2     3    1
     4     3    23    1
     5     4    23    1
     6     4     5    1
     7     5     6    1
     8     5     2    1
     9     6     7    1
    10     7     5    1
    11     8     9    1
    12    10    11   ar
    13    12    13   ar
    14    13    15    1
    15    14     9   ar
    16    17    25   ar
    17    18    26   ar
    18    19    20   ar
    19    19    16   ar
    20    21    27   ar
    21    22    16    1
    22    23     8   am
    23    27    18   ar
    24     8    28    2
    25     9    10   ar
    26    11    12   ar
    27    13    14   ar
    28    16    25   ar
    29    17    26   ar
    30    18    19   ar
    31    20    21   ar
    32    15    24    3
    33     1    29    1
    34     1    30    1
    35     1    31    1
    36     2    32    1
    37     3    33    1
    38     3    34    1
    39     4    35    1
    40     4    36    1
    41     6    37    1
    42     6    38    1
    43     7    39    1
    44     7    40    1
    45    10    41    1
    46    11    42    1
    47    12    43    1
    48    14    44    1
    49    17    45    1
    50    20    46    1
    51    21    47    1
    52    27    48    1
@<TRIPOS>MOLECULE
CHEMBL4290647
 47 51 0 0 0
SMALL
GASTEIGER

@<TRIPOS>ATOM
      1 C         -25.1656   62.9064  -23.0900 C.3     1  UNL1        0.0024
      2 C         -23.8026   64.1899  -24.7439 C.3     1  UNL1        0.0473
      3 C         -22.5311   63.8038  -25.5223 C.3     1  UNL1        0.0341
      4 C         -23.6783   65.4597  -26.8548 C.3     1  UNL1        0.0224
      5 C         -24.4268   65.3122  -25.5536 C.3     1  UNL1        0.0065
      6 C         -24.9206   66.5613  -24.8385 C.3     1  UNL1       -0.0436
      7 C         -25.9097   65.6465  -25.4886 C.3     1  UNL1       -0.0436
      8 C         -21.7662   64.3443  -27.8946 C.2     1  UNL1        0.2467
      9 C         -20.7373   63.2825  -27.8678 C.ar    1  UNL1        0.0369
     10 C         -19.3975   63.6412  -28.0442 C.ar    1  UNL1       -0.0496
     11 C         -18.4126   62.6529  -28.0633 C.ar    1  UNL1       -0.0610
     12 C         -18.7681   61.3104  -27.9206 C.ar    1  UNL1       -0.0617
     13 C         -20.1086   60.9507  -27.7719 C.ar    1  UNL1       -0.0610
     14 C         -21.0969   61.9355  -27.7572 C.ar    1  UNL1       -0.0496
     15 C         -25.2339   62.2630  -25.4728 C.ar    1  UNL1        0.1338
     16 C         -25.3469   61.8199  -27.7862 C.ar    1  UNL1        0.1204
     17 C         -26.5091   60.4894  -26.4692 C.ar    1  UNL1        0.1432
     18 C         -26.1103   61.1524  -25.3120 C.ar    1  UNL1        0.0585
     19 C         -26.7542   60.4530  -24.2411 C.ar    1  UNL1       -0.0318
     20 C         -27.5025   59.4232  -24.7725 C.ar    1  UNL1        0.0042
     21 N         -24.7224   63.0692  -24.4617 N.pl3   1  UNL1       -0.3125
     22 N         -22.6051   64.4880  -26.8095 N.am    1  UNL1       -0.2952
     23 N         -24.8733   62.5427  -26.7572 N.ar    1  UNL1       -0.2200
     24 N         -26.1682   60.7684  -27.7332 N.ar    1  UNL1       -0.2178
     25 N         -27.3424   59.4605  -26.1294 N.ar    1  UNL1       -0.3457
     26 O         -21.8152   65.0729  -28.8842 O.2     1  UNL1       -0.2700
     27 H         -24.7454   63.6705  -22.4265 H       1  UNL1        0.0428
     28 H         -26.2538   63.0020  -23.0121 H       1  UNL1        0.0428
     29 H         -24.8415   61.9405  -22.6896 H       1  UNL1        0.0428
     30 H         -23.4549   64.6060  -23.7894 H       1  UNL1        0.0521
     31 H         -21.6414   64.1955  -25.0140 H       1  UNL1        0.0483
     32 H         -22.3963   62.7262  -25.6249 H       1  UNL1        0.0483
     33 H         -23.2399   66.4575  -26.9668 H       1  UNL1        0.0471
     34 H         -24.3112   65.2534  -27.7247 H       1  UNL1        0.0471
     35 H         -24.9004   66.5864  -23.7548 H       1  UNL1        0.0272
     36 H         -24.7487   67.5273  -25.3007 H       1  UNL1        0.0272
     37 H         -26.5516   65.0512  -24.8502 H       1  UNL1        0.0272
     38 H         -26.3965   65.9767  -26.3997 H       1  UNL1        0.0272
     39 H         -19.1265   64.6859  -28.1758 H       1  UNL1        0.0625
     40 H         -17.3700   62.9283  -28.2004 H       1  UNL1        0.0618
     41 H         -17.9998   60.5412  -27.9405 H       1  UNL1        0.0618
     42 H         -20.3847   59.9033  -27.6790 H       1  UNL1        0.0618
     43 H         -22.1424   61.6512  -27.6695 H       1  UNL1        0.0625
     44 H         -25.0164   62.1282  -28.7733 H       1  UNL1        0.1048
     45 H         -26.6894   60.6653  -23.1842 H       1  UNL1        0.0640
     46 H         -28.1285   58.6753  -24.3044 H       1  UNL1        0.0807
     47 H         -27.7623   58.8372  -26.8037 H       1  UNL1        0.1668
@<TRIPOS>BOND
     1     1    21    1
     2     2    21    1
     3     2     3    1
     4     3    22    1
     5     4    22    1
     6     4     5    1
     7     5     6    1
     8     5     2    1
     9     6     7    1
    10     7     5    1
    11     8     9    1
    12    10    11   ar
    13    12    13   ar
    14    14     9   ar
    15    16    23   ar
    16    17    24   ar
    17    18    19   ar
    18    18    15   ar
    19    20    25   ar
    20    21    15    1
    21    22     8   am
    22    25    17   ar
    23     8    26    2
    24     9    10   ar
    25    11    12   ar
    26    13    14   ar
    27    15    23   ar
    28    16    24   ar
    29    17    18   ar
    30    19    20   ar
    31     1    27    1
    32     1    28    1
    33     1    29    1
    34     2    30    1
    35     3    31    1
    36     3    32    1
    37     4    33    1
    38     4    34    1
    39     6    35    1
    40     6    36    1
    41     7    37    1
    42     7    38    1
    43    10    39    1
    44    11    40    1
    45    12    41    1
    46    13    42    1
    47    14    43    1
    48    16    44    1
    49    19    45    1
    50    20    46    1
    51    25    47    1
@<TRIPOS>MOLECULE
CHEMBL4292627
 48 52 0 0 0
SMALL
GASTEIGER

@<TRIPOS>ATOM
      1 C         -25.1617   62.8008  -23.0840 C.3     1  UNL1        0.0024
      2 C         -23.8874   64.2379  -24.6783 C.3     1  UNL1        0.0473
      3 C         -22.5521   63.8967  -25.3626 C.3     1  UNL1        0.0341
      4 C         -23.6615   65.4948  -26.7854 C.3     1  UNL1        0.0224
      5 C         -24.4784   65.3465  -25.5254 C.3     1  UNL1        0.0065
      6 C         -24.9905   66.6034  -24.8360 C.3     1  UNL1       -0.0436
      7 C         -25.9593   65.6906  -25.5191 C.3     1  UNL1       -0.0436
      8 C         -21.6729   64.4256  -27.7159 C.2     1  UNL1        0.2467
      9 C         -20.7004   63.3008  -27.7612 C.ar    1  UNL1        0.0370
     10 C         -19.4226   63.5376  -28.2892 C.ar    1  UNL1       -0.0484
     11 C         -18.5071   62.4875  -28.4301 C.ar    1  UNL1       -0.0436
     12 C         -18.8616   61.1923  -28.0390 C.ar    1  UNL1        0.0518
     13 C         -20.1432   60.9482  -27.5370 C.ar    1  UNL1       -0.0436
     14 C         -21.0668   61.9924  -27.4306 C.ar    1  UNL1       -0.0484
     15 C         -17.9305   60.1097  -28.1771 C.1     1  UNL1        0.0992
     16 C         -25.2418   62.2724  -25.4896 C.ar    1  UNL1        0.1338
     17 C         -25.2456   61.8130  -27.8021 C.ar    1  UNL1        0.1204
     18 C         -26.4020   60.4376  -26.5259 C.ar    1  UNL1        0.1432
     19 C         -26.0897   61.1317  -25.3603 C.ar    1  UNL1        0.0585
     20 C         -26.7682   60.4231  -24.3156 C.ar    1  UNL1       -0.0318
     21 C         -27.4289   59.3448  -24.8662 C.ar    1  UNL1        0.0042
     22 N         -24.7816   63.0820  -24.4562 N.pl3   1  UNL1       -0.3125
     23 N         -22.5782   64.5343  -26.6768 N.am    1  UNL1       -0.2952
     24 N         -17.1859   59.2273  -28.2837 N.1     1  UNL1       -0.1909
     25 N         -24.8425   62.5631  -26.7603 N.ar    1  UNL1       -0.2200
     26 N         -26.0149   60.7210  -27.7752 N.ar    1  UNL1       -0.2178
     27 N         -27.1960   59.3690  -26.2126 N.ar    1  UNL1       -0.3457
     28 O         -21.6391   65.2375  -28.6413 O.2     1  UNL1       -0.2700
     29 H         -24.6795   63.4791  -22.3718 H       1  UNL1        0.0428
     30 H         -26.2409   62.9230  -22.9453 H       1  UNL1        0.0428
     31 H         -24.8518   61.7923  -22.7908 H       1  UNL1        0.0428
     32 H         -23.6238   64.6645  -23.7023 H       1  UNL1        0.0521
     33 H         -21.7206   64.3600  -24.8174 H       1  UNL1        0.0483
     34 H         -22.3546   62.8274  -25.3901 H       1  UNL1        0.0483
     35 H         -23.2328   66.4985  -26.8819 H       1  UNL1        0.0471
     36 H         -24.2441   65.2728  -27.6862 H       1  UNL1        0.0471
     37 H         -25.0110   66.6353  -23.7523 H       1  UNL1        0.0272
     38 H         -24.7918   67.5659  -25.2952 H       1  UNL1        0.0272
     39 H         -26.6265   65.1004  -24.9017 H       1  UNL1        0.0272
     40 H         -26.4108   66.0261  -26.4462 H       1  UNL1        0.0272
     41 H         -19.1470   64.5387  -28.6182 H       1  UNL1        0.0625
     42 H         -17.5270   62.6872  -28.8601 H       1  UNL1        0.0631
     43 H         -20.4438   59.9422  -27.2491 H       1  UNL1        0.0631
     44 H         -22.0828   61.7609  -27.1231 H       1  UNL1        0.0625
     45 H         -24.8951   62.1303  -28.7794 H       1  UNL1        0.1048
     46 H         -26.7827   60.6578  -23.2616 H       1  UNL1        0.0640
     47 H         -28.0403   58.5726  -24.4177 H       1  UNL1        0.0807
     48 H         -27.5452   58.7121  -26.8955 H       1  UNL1        0.1668
@<TRIPOS>BOND
     1     1    22    1
     2     2    22    1
     3     2     3    1
     4     3    23    1
     5     4    23    1
     6     4     5    1
     7     5     6    1
     8     5     2    1
     9     6     7    1
    10     7     5    1
    11     8     9    1
    12    10    11   ar
    13    12    13   ar
    14    12    15    1
    15    14     9   ar
    16    17    25   ar
    17    18    26   ar
    18    19    20   ar
    19    19    16   ar
    20    21    27   ar
    21    22    16    1
    22    23     8   am
    23    27    18   ar
    24     8    28    2
    25     9    10   ar
    26    11    12   ar
    27    13    14   ar
    28    16    25   ar
    29    17    26   ar
    30    18    19   ar
    31    20    21   ar
    32    15    24    3
    33     1    29    1
    34     1    30    1
    35     1    31    1
    36     2    32    1
    37     3    33    1
    38     3    34    1
    39     4    35    1
    40     4    36    1
    41     6    37    1
    42     6    38    1
    43     7    39    1
    44     7    40    1
    45    10    41    1
    46    11    42    1
    47    13    43    1
    48    14    44    1
    49    17    45    1
    50    20    46    1
    51    21    47    1
    52    27    48    1
@<TRIPOS>MOLECULE
CHEMBL1630793
 63 67 0 0 0
SMALL
GASTEIGER

@<TRIPOS>ATOM
      1 N         -24.5286   60.5292  -26.0338 N.ar    1  UNL1       -0.2200
      2 N         -24.9534   62.7213  -26.9190 N.ar    1  UNL1       -0.2178
      3 N         -26.8654   62.8283  -28.3219 N.ar    1  UNL1       -0.3457
      4 N         -25.7467   58.5517  -26.4772 N.pl3   1  UNL1       -0.3128
      5 N         -24.8105   56.4963  -28.8072 N.am    1  UNL1       -0.2991
      6 N         -20.7022   58.8318  -29.2085 N.am    1  UNL1       -0.2965
      7 C         -24.2683   61.8368  -26.1905 C.ar    1  UNL1        0.1204
      8 C         -25.9917   62.1386  -27.5294 C.ar    1  UNL1        0.1432
      9 C         -27.8218   61.9805  -28.8023 C.ar    1  UNL1        0.0042
     10 C         -27.5480   60.7255  -28.2998 C.ar    1  UNL1       -0.0318
     11 C         -26.3743   60.7996  -27.4814 C.ar    1  UNL1        0.0585
     12 C         -25.5760   59.9313  -26.6814 C.ar    1  UNL1        0.1338
     13 C         -26.5144   57.7071  -27.4134 C.3     1  UNL1        0.0429
     14 C         -25.8193   57.5577  -28.7870 C.3     1  UNL1        0.0335
     15 C         -25.3349   55.1798  -28.4621 C.3     1  UNL1        0.0151
     16 C         -25.9416   55.1905  -27.0629 C.3     1  UNL1       -0.0328
     17 C         -26.9648   56.3292  -26.8390 C.3     1  UNL1       -0.0224
     18 C         -28.3206   55.9083  -27.4423 C.3     1  UNL1       -0.0606
     19 C         -23.4617   56.6213  -29.1101 C.2     1  UNL1        0.2276
     20 C         -22.8737   57.9807  -29.4353 C.3     1  UNL1        0.1134
     21 C         -22.1873   57.9724  -30.8109 C.3     1  UNL1       -0.0176
     22 C         -20.8521   58.6703  -30.6253 C.3     1  UNL1        0.0162
     23 C         -21.7715   58.3551  -28.4800 C.2     1  UNL1        0.2278
     24 C         -19.5468   59.4625  -28.6044 C.3     1  UNL1        0.0397
     25 C         -19.8306   60.8933  -28.2065 C.ar    1  UNL1       -0.0301
     26 C         -20.1554   61.2035  -26.8766 C.ar    1  UNL1       -0.0571
     27 C         -20.4296   62.5183  -26.4971 C.ar    1  UNL1       -0.0615
     28 C         -20.4044   63.5363  -27.4469 C.ar    1  UNL1       -0.0617
     29 C         -20.1005   63.2402  -28.7748 C.ar    1  UNL1       -0.0615
     30 C         -19.8132   61.9263  -29.1536 C.ar    1  UNL1       -0.0571
     31 C         -24.8304   57.9918  -25.4879 C.3     1  UNL1        0.0024
     32 O         -22.7265   55.6274  -29.1512 O.2     1  UNL1       -0.2748
     33 O         -21.8298   58.3065  -27.2574 O.2     1  UNL1       -0.2748
     34 H         -26.7942   63.8202  -28.4960 H       1  UNL1        0.1668
     35 H         -23.4040   62.2158  -25.6564 H       1  UNL1        0.1048
     36 H         -28.6158   62.3386  -29.4440 H       1  UNL1        0.0807
     37 H         -28.1622   59.8632  -28.5073 H       1  UNL1        0.0640
     38 H         -27.4470   58.2434  -27.5754 H       1  UNL1        0.0518
     39 H         -26.5745   57.2658  -29.5309 H       1  UNL1        0.0483
     40 H         -25.4289   58.5107  -29.1341 H       1  UNL1        0.0483
     41 H         -26.0883   54.9161  -29.2155 H       1  UNL1        0.0465
     42 H         -24.5610   54.4076  -28.5123 H       1  UNL1        0.0465
     43 H         -26.4109   54.2196  -26.8614 H       1  UNL1        0.0284
     44 H         -25.1204   55.2736  -26.3437 H       1  UNL1        0.0284
     45 H         -27.1433   56.4355  -25.7615 H       1  UNL1        0.0317
     46 H         -28.8331   55.2222  -26.7586 H       1  UNL1        0.0233
     47 H         -28.9870   56.7629  -27.5972 H       1  UNL1        0.0233
     48 H         -28.2070   55.3946  -28.4016 H       1  UNL1        0.0233
     49 H         -23.5881   58.8005  -29.4108 H       1  UNL1        0.0490
     50 H         -22.0356   56.9598  -31.2036 H       1  UNL1        0.0292
     51 H         -22.7975   58.4956  -31.5567 H       1  UNL1        0.0292
     52 H         -20.0281   58.0541  -31.0014 H       1  UNL1        0.0465
     53 H         -20.8255   59.6465  -31.1165 H       1  UNL1        0.0465
     54 H         -19.2653   58.8836  -27.7164 H       1  UNL1        0.0514
     55 H         -18.7014   59.4178  -29.3000 H       1  UNL1        0.0514
     56 H         -20.2112   60.4119  -26.1302 H       1  UNL1        0.0621
     57 H         -20.6725   62.7426  -25.4620 H       1  UNL1        0.0618
     58 H         -20.6286   64.5584  -27.1537 H       1  UNL1        0.0618
     59 H         -20.0905   64.0342  -29.5167 H       1  UNL1        0.0618
     60 H         -19.5822   61.7127  -30.1937 H       1  UNL1        0.0621
     61 H         -24.9081   58.5345  -24.5370 H       1  UNL1        0.0428
     62 H         -25.0510   56.9592  -25.2276 H       1  UNL1        0.0428
     63 H         -23.7947   58.0272  -25.8316 H       1  UNL1        0.0428
@<TRIPOS>BOND
     1     3     9   ar
     2     5    19   am
     3     6    23   am
     4     7     2   ar
     5     8     3   ar
     6    10    11   ar
     7    11     8   ar
     8    12     4    1
     9    12     1   ar
    10    13     4    1
    11    13    14    1
    12    14     5    1
    13    15     5    1
    14    15    16    1
    15    16    17    1
    16    17    18    1
    17    17    13    1
    18    20    19    1
    19    20    21    1
    20    20    23    1
    21    21    22    1
    22    22     6    1
    23    24     6    1
    24    24    25    1
    25    26    27   ar
    26    28    29   ar
    27    30    25   ar
    28    31     4    1
    29     7     1   ar
    30     8     2   ar
    31     9    10   ar
    32    11    12   ar
    33    19    32    2
    34    23    33    2
    35    25    26   ar
    36    27    28   ar
    37    29    30   ar
    38     3    34    1
    39     7    35    1
    40     9    36    1
    41    10    37    1
    42    13    38    1
    43    14    39    1
    44    14    40    1
    45    15    41    1
    46    15    42    1
    47    16    43    1
    48    16    44    1
    49    17    45    1
    50    18    46    1
    51    18    47    1
    52    18    48    1
    53    20    49    1
    54    21    50    1
    55    21    51    1
    56    22    52    1
    57    22    53    1
    58    24    54    1
    59    24    55    1
    60    26    56    1
    61    27    57    1
    62    28    58    1
    63    29    59    1
    64    30    60    1
    65    31    61    1
    66    31    62    1
    67    31    63    1
@<TRIPOS>MOLECULE
CHEMBL1630796
 46 49 0 0 0
SMALL
GASTEIGER

@<TRIPOS>ATOM
      1 N         -25.0531   62.6843  -26.8145 N.ar    1  UNL1       -0.2200
      2 N         -24.7172   60.6150  -28.0065 N.ar    1  UNL1       -0.2178
      3 N         -23.3877   59.0417  -26.8049 N.ar    1  UNL1       -0.3457
      4 N         -24.2638   63.1715  -24.6572 N.pl3   1  UNL1       -0.3128
      5 N         -22.8101   64.9334  -27.0986 N.am    1  UNL1       -0.2957
      6 C         -25.1930   61.8581  -27.8679 C.ar    1  UNL1        0.1204
      7 C         -24.0145   60.2499  -26.9272 C.ar    1  UNL1        0.1432
      8 C         -22.7270   58.9815  -25.6080 C.ar    1  UNL1        0.0042
      9 C         -22.9472   60.1756  -24.9532 C.ar    1  UNL1       -0.0318
     10 C         -23.7837   60.9927  -25.7756 C.ar    1  UNL1        0.0585
     11 C         -24.3538   62.2904  -25.7226 C.ar    1  UNL1        0.1338
     12 C         -23.9275   64.6018  -24.8589 C.3     1  UNL1        0.0429
     13 C         -22.6191   64.7974  -25.6598 C.3     1  UNL1        0.0338
     14 C         -23.7535   65.9903  -27.4574 C.3     1  UNL1        0.0153
     15 C         -25.1353   65.7414  -26.8572 C.3     1  UNL1       -0.0328
     16 C         -25.1152   65.4744  -25.3387 C.3     1  UNL1       -0.0224
     17 C         -25.0989   66.8260  -24.6010 C.3     1  UNL1       -0.0606
     18 C         -22.2989   64.1326  -28.1269 C.2     1  UNL1        0.2472
     19 C         -21.3241   63.0438  -27.9076 C.ar    1  UNL1        0.0439
     20 C         -20.4059   62.8586  -26.8902 C.ar    1  UNL1       -0.0122
     21 C         -20.1670   61.0793  -28.5630 C.ar    1  UNL1       -0.0236
     22 C         -21.1262   62.0050  -28.9003 C.ar    1  UNL1       -0.0426
     23 C         -24.1781   62.6424  -23.3072 C.3     1  UNL1        0.0024
     24 O         -22.6724   64.3277  -29.2906 O.2     1  UNL1       -0.2700
     25 S         -19.4728   61.4258  -27.0479 S.2     1  UNL1       -0.1043
     26 H         -23.4105   58.3275  -27.5180 H       1  UNL1        0.1668
     27 H         -25.7611   62.2524  -28.7044 H       1  UNL1        0.1048
     28 H         -22.1510   58.1079  -25.3338 H       1  UNL1        0.0807
     29 H         -22.5301   60.4316  -23.9901 H       1  UNL1        0.0640
     30 H         -23.6706   64.9640  -23.8527 H       1  UNL1        0.0518
     31 H         -22.1413   65.7314  -25.3354 H       1  UNL1        0.0483
     32 H         -21.9485   63.9912  -25.3937 H       1  UNL1        0.0483
     33 H         -23.3423   66.9377  -27.0908 H       1  UNL1        0.0465
     34 H         -23.8549   66.0974  -28.5421 H       1  UNL1        0.0465
     35 H         -25.7828   66.5985  -27.0821 H       1  UNL1        0.0284
     36 H         -25.6030   64.9004  -27.3742 H       1  UNL1        0.0284
     37 H         -26.0595   64.9865  -25.0634 H       1  UNL1        0.0317
     38 H         -25.1535   66.6804  -23.5168 H       1  UNL1        0.0233
     39 H         -24.1898   67.3951  -24.8214 H       1  UNL1        0.0233
     40 H         -25.9603   67.4378  -24.8906 H       1  UNL1        0.0233
     41 H         -20.1885   63.4755  -26.0348 H       1  UNL1        0.0701
     42 H         -19.8425   60.2238  -29.1393 H       1  UNL1        0.0693
     43 H         -21.6802   61.9652  -29.8323 H       1  UNL1        0.0630
     44 H         -24.5695   63.3679  -22.5849 H       1  UNL1        0.0428
     45 H         -24.7753   61.7325  -23.1832 H       1  UNL1        0.0428
     46 H         -23.1374   62.4381  -23.0355 H       1  UNL1        0.0428
@<TRIPOS>BOND
     1     3     8   ar
     2     5    18   am
     3     6     2   ar
     4     7     3   ar
     5     9    10   ar
     6    10     7   ar
     7    11     4    1
     8    11     1   ar
     9    12     4    1
    10    12    13    1
    11    13     5    1
    12    14     5    1
    13    14    15    1
    14    15    16    1
    15    16    17    1
    16    16    12    1
    17    18    19    1
    18    20    25   ar
    19    21    25   ar
    20    22    19   ar
    21    23     4    1
    22     6     1   ar
    23     7     2   ar
    24     8     9   ar
    25    10    11   ar
    26    18    24    2
    27    19    20   ar
    28    21    22   ar
    29     3    26    1
    30     6    27    1
    31     8    28    1
    32     9    29    1
    33    12    30    1
    34    13    31    1
    35    13    32    1
    36    14    33    1
    37    14    34    1
    38    15    35    1
    39    15    36    1
    40    16    37    1
    41    17    38    1
    42    17    39    1
    43    17    40    1
    44    20    41    1
    45    21    42    1
    46    22    43    1
    47    23    44    1
    48    23    45    1
    49    23    46    1
@<TRIPOS>MOLECULE
CHEMBL3693610
 48 52 0 0 0
SMALL
GASTEIGER

@<TRIPOS>ATOM
      1 O         -19.7843   65.6374  -28.1131 O.2     1  UNL1       -0.2700
      2 C         -20.6333   64.8968  -28.6074 C.2     1  UNL1        0.2471
      3 C         -21.3217   66.6480  -30.1406 C.3     1  UNL1        0.0157
      4 C         -22.2606   66.7324  -31.3264 C.3     1  UNL1       -0.0351
      5 C         -23.4336   65.8748  -30.8844 C.3     1  UNL1       -0.0285
      6 C         -22.7858   64.7079  -30.0970 C.3     1  UNL1        0.0548
      7 C         -22.5460   63.4934  -31.0108 C.3     1  UNL1       -0.0141
      8 C         -23.1246   62.2731  -30.2907 C.3     1  UNL1        0.0156
      9 C         -23.7626   64.2160  -29.0071 C.3     1  UNL1        0.0351
     10 C         -24.2322   62.0119  -28.0493 C.ar    1  UNL1        0.1338
     11 C         -25.3325   61.9882  -25.9757 C.ar    1  UNL1        0.1204
     12 C         -24.7580   60.0313  -26.8205 C.ar    1  UNL1        0.1432
     13 C         -23.9612   58.3356  -28.0434 C.ar    1  UNL1        0.0042
     14 C         -23.7182   59.5023  -28.7377 C.ar    1  UNL1       -0.0318
     15 C         -24.2032   60.5992  -27.9607 C.ar    1  UNL1        0.0585
     16 C         -20.6217   63.4987  -28.1548 C.ar    1  UNL1        0.0381
     17 C         -19.9950   62.5371  -28.9538 C.ar    1  UNL1       -0.0496
     18 C         -19.9227   61.2146  -28.5191 C.ar    1  UNL1       -0.0598
     19 C         -20.4412   60.8663  -27.2705 C.ar    1  UNL1       -0.0443
     20 C         -21.0106   61.8436  -26.4418 C.ar    1  UNL1        0.0525
     21 C         -21.0900   63.1696  -26.8796 C.ar    1  UNL1       -0.0322
     22 C         -21.4995   61.4769  -25.1439 C.1     1  UNL1        0.0992
     23 N         -21.5276   65.3215  -29.5805 N.am    1  UNL1       -0.2902
     24 N         -23.6725   62.7667  -29.0505 N.pl3   1  UNL1       -0.3125
     25 N         -24.8193   62.6767  -27.0125 N.ar    1  UNL1       -0.2200
     26 N         -25.3468   60.6627  -25.7983 N.ar    1  UNL1       -0.2178
     27 N         -24.5944   58.6754  -26.8788 N.ar    1  UNL1       -0.3457
     28 N         -21.8686   61.1638  -24.0896 N.1     1  UNL1       -0.1909
     29 H         -21.5765   67.3854  -29.3711 H       1  UNL1        0.0465
     30 H         -20.2749   66.7898  -30.4290 H       1  UNL1        0.0465
     31 H         -22.5539   67.7621  -31.5510 H       1  UNL1        0.0281
     32 H         -21.7926   66.3050  -32.2204 H       1  UNL1        0.0281
     33 H         -24.0789   66.4737  -30.2292 H       1  UNL1        0.0287
     34 H         -24.0449   65.5471  -31.7316 H       1  UNL1        0.0287
     35 H         -23.0482   63.5954  -31.9799 H       1  UNL1        0.0302
     36 H         -21.4861   63.3461  -31.2423 H       1  UNL1        0.0302
     37 H         -23.9071   61.8106  -30.9033 H       1  UNL1        0.0465
     38 H         -22.3363   61.5356  -30.1298 H       1  UNL1        0.0465
     39 H         -24.7948   64.5119  -29.2313 H       1  UNL1        0.0485
     40 H         -23.4938   64.6287  -28.0279 H       1  UNL1        0.0485
     41 H         -25.7832   62.5817  -25.1864 H       1  UNL1        0.1048
     42 H         -23.7391   57.3028  -28.2762 H       1  UNL1        0.0807
     43 H         -23.2290   59.5476  -29.6994 H       1  UNL1        0.0640
     44 H         -19.5650   62.8201  -29.9111 H       1  UNL1        0.0625
     45 H         -19.4623   60.4580  -29.1494 H       1  UNL1        0.0618
     46 H         -20.3903   59.8295  -26.9419 H       1  UNL1        0.0630
     47 H         -21.5206   63.9398  -26.2436 H       1  UNL1        0.0638
     48 H         -24.8963   58.0459  -26.1491 H       1  UNL1        0.1668
@<TRIPOS>BOND
     1     2    23   am
     2     2    16    1
     3     3    23    1
     4     3     4    1
     5     4     5    1
     6     5     6    1
     7     6     7    1
     8     6    23    1
     9     7     8    1
    10     8    24    1
    11     9    24    1
    12     9     6    1
    13    11    25   ar
    14    12    26   ar
    15    12    27   ar
    16    14    15   ar
    17    15    10   ar
    18    17    18   ar
    19    19    20   ar
    20    20    22    1
    21    21    16   ar
    22    24    10    1
    23    27    13   ar
    24     2     1    2
    25    10    25   ar
    26    11    26   ar
    27    13    14   ar
    28    15    12   ar
    29    16    17   ar
    30    18    19   ar
    31    20    21   ar
    32    22    28    3
    33     3    29    1
    34     3    30    1
    35     4    31    1
    36     4    32    1
    37     5    33    1
    38     5    34    1
    39     7    35    1
    40     7    36    1
    41     8    37    1
    42     8    38    1
    43     9    39    1
    44     9    40    1
    45    11    41    1
    46    13    42    1
    47    14    43    1
    48    17    44    1
    49    18    45    1
    50    19    46    1
    51    21    47    1
    52    27    48    1
@<TRIPOS>MOLECULE
CHEMBL3693611
 48 52 0 0 0
SMALL
GASTEIGER

@<TRIPOS>ATOM
      1 O         -18.8426   64.9750  -26.7958 O.2     1  UNL1       -0.2700
      2 C         -19.9277   64.5242  -26.4136 C.2     1  UNL1        0.2471
      3 C         -20.3357   66.6357  -25.3449 C.3     1  UNL1        0.0157
      4 C         -21.5434   67.3266  -24.7592 C.3     1  UNL1       -0.0351
      5 C         -22.1688   66.2359  -23.9111 C.3     1  UNL1       -0.0285
      6 C         -21.9047   64.9129  -24.6859 C.3     1  UNL1        0.0548
      7 C         -21.5860   63.8058  -23.6691 C.3     1  UNL1       -0.0141
      8 C         -22.1699   62.5245  -24.2439 C.3     1  UNL1        0.0156
      9 C         -23.1827   64.4049  -25.3902 C.3     1  UNL1        0.0351
     10 C         -23.9539   62.1262  -25.9511 C.ar    1  UNL1        0.1338
     11 C         -25.6708   61.9207  -27.5326 C.ar    1  UNL1        0.1204
     12 C         -24.7739   60.0437  -26.7906 C.ar    1  UNL1        0.1432
     13 C         -23.5328   58.4661  -25.8006 C.ar    1  UNL1        0.0042
     14 C         -23.1175   59.6892  -25.3183 C.ar    1  UNL1       -0.0318
     15 C         -23.8920   60.7108  -25.9512 C.ar    1  UNL1        0.0585
     16 C         -20.2474   63.1880  -26.9460 C.ar    1  UNL1        0.0370
     17 C         -19.2812   62.1836  -26.7764 C.ar    1  UNL1       -0.0484
     18 C         -19.3600   60.9939  -27.5007 C.ar    1  UNL1       -0.0436
     19 C         -20.4089   60.7992  -28.3980 C.ar    1  UNL1        0.0518
     20 C         -21.3818   61.7921  -28.5706 C.ar    1  UNL1       -0.0436
     21 C         -21.2859   62.9997  -27.8634 C.ar    1  UNL1       -0.0484
     22 C         -22.4468   61.5760  -29.5083 C.1     1  UNL1        0.0992
     23 N         -20.7503   65.2585  -25.5699 N.am    1  UNL1       -0.2902
     24 N         -23.1289   62.9557  -25.2353 N.pl3   1  UNL1       -0.3125
     25 N         -24.8707   62.7007  -26.7787 N.ar    1  UNL1       -0.2200
     26 N         -25.6977   60.5832  -27.5940 N.ar    1  UNL1       -0.2178
     27 N         -24.5421   58.6996  -26.6947 N.ar    1  UNL1       -0.3457
     28 N         -23.2876   61.3783  -30.2831 N.1     1  UNL1       -0.1909
     29 H         -19.4992   66.6191  -24.6356 H       1  UNL1        0.0465
     30 H         -19.9987   67.1112  -26.2718 H       1  UNL1        0.0465
     31 H         -21.2692   68.2099  -24.1743 H       1  UNL1        0.0281
     32 H         -22.2331   67.6363  -25.5516 H       1  UNL1        0.0281
     33 H         -21.6632   66.2254  -22.9366 H       1  UNL1        0.0287
     34 H         -23.2285   66.4342  -23.7212 H       1  UNL1        0.0287
     35 H         -20.5155   63.7052  -23.4619 H       1  UNL1        0.0302
     36 H         -22.0842   64.0036  -22.7106 H       1  UNL1        0.0302
     37 H         -21.3780   61.9175  -24.6880 H       1  UNL1        0.0465
     38 H         -22.6494   61.9488  -23.4438 H       1  UNL1        0.0465
     39 H         -23.2156   64.7300  -26.4345 H       1  UNL1        0.0485
     40 H         -24.0891   64.7715  -24.8929 H       1  UNL1        0.0485
     41 H         -26.3748   62.4410  -28.1747 H       1  UNL1        0.1048
     42 H         -23.1960   57.4604  -25.5873 H       1  UNL1        0.0807
     43 H         -22.3260   59.8202  -24.5950 H       1  UNL1        0.0640
     44 H         -18.4266   62.3598  -26.1256 H       1  UNL1        0.0625
     45 H         -18.5822   60.2408  -27.3982 H       1  UNL1        0.0631
     46 H         -20.4471   59.8823  -28.9847 H       1  UNL1        0.0631
     47 H         -21.9969   63.7972  -28.0595 H       1  UNL1        0.0625
     48 H         -25.0459   58.0072  -27.2297 H       1  UNL1        0.1668
@<TRIPOS>BOND
     1     2    23   am
     2     2    16    1
     3     3    23    1
     4     3     4    1
     5     4     5    1
     6     5     6    1
     7     6     7    1
     8     6    23    1
     9     7     8    1
    10     8    24    1
    11     9    24    1
    12     9     6    1
    13    11    25   ar
    14    12    26   ar
    15    12    27   ar
    16    14    15   ar
    17    15    10   ar
    18    17    18   ar
    19    19    20   ar
    20    19    22    1
    21    21    16   ar
    22    24    10    1
    23    27    13   ar
    24     2     1    2
    25    10    25   ar
    26    11    26   ar
    27    13    14   ar
    28    15    12   ar
    29    16    17   ar
    30    18    19   ar
    31    20    21   ar
    32    22    28    3
    33     3    29    1
    34     3    30    1
    35     4    31    1
    36     4    32    1
    37     5    33    1
    38     5    34    1
    39     7    35    1
    40     7    36    1
    41     8    37    1
    42     8    38    1
    43     9    39    1
    44     9    40    1
    45    11    41    1
    46    13    42    1
    47    14    43    1
    48    17    44    1
    49    18    45    1
    50    20    46    1
    51    21    47    1
    52    27    48    1
@<TRIPOS>MOLECULE
CHEMBL4280010
 46 50 0 0 0
SMALL
GASTEIGER

@<TRIPOS>ATOM
      1 C         -25.2139   62.9299  -23.0918 C.3     1  UNL1        0.0024
      2 C         -23.8195   64.1797  -24.7439 C.3     1  UNL1        0.0473
      3 C         -22.5505   63.7721  -25.5147 C.3     1  UNL1        0.0341
      4 C         -23.6636   65.4487  -26.8533 C.3     1  UNL1        0.0224
      5 C         -24.4256   65.3070  -25.5600 C.3     1  UNL1        0.0065
      6 C         -24.9116   66.5611  -24.8484 C.3     1  UNL1       -0.0436
      7 C         -25.9051   65.6581  -25.5083 C.3     1  UNL1       -0.0436
      8 C         -21.7119   64.3609  -27.8493 C.2     1  UNL1        0.2481
      9 C         -20.6927   63.3010  -27.8123 C.ar    1  UNL1        0.0550
     10 C         -19.3561   63.6470  -27.9383 C.ar    1  UNL1        0.0397
     11 C         -18.6967   61.4411  -27.8378 C.ar    1  UNL1        0.0276
     12 C         -20.0087   60.9994  -27.7427 C.ar    1  UNL1       -0.0429
     13 C         -21.0270   61.9492  -27.7379 C.ar    1  UNL1       -0.0467
     14 C         -25.2648   62.2630  -25.4689 C.ar    1  UNL1        0.1338
     15 C         -25.3711   61.8052  -27.7794 C.ar    1  UNL1        0.1204
     16 C         -26.5448   60.4887  -26.4580 C.ar    1  UNL1        0.1432
     17 C         -26.1472   61.1578  -25.3040 C.ar    1  UNL1        0.0585
     18 C         -26.7974   60.4683  -24.2305 C.ar    1  UNL1       -0.0318
     19 C         -27.5484   59.4383  -24.7574 C.ar    1  UNL1        0.0042
     20 N         -24.7538   63.0726  -24.4606 N.pl3   1  UNL1       -0.3125
     21 N         -22.5886   64.4792  -26.7916 N.am    1  UNL1       -0.2951
     22 N         -18.3445   62.7431  -27.9354 N.ar    1  UNL1       -0.2625
     23 N         -24.8954   62.5320  -26.7539 N.ar    1  UNL1       -0.2200
     24 N         -26.1975   60.7579  -27.7223 N.ar    1  UNL1       -0.2178
     25 N         -27.3844   59.4661  -26.1141 N.ar    1  UNL1       -0.3457
     26 O         -21.7237   65.1098  -28.8232 O.2     1  UNL1       -0.2699
     27 H         -24.8002   63.7028  -22.4344 H       1  UNL1        0.0428
     28 H         -26.3027   63.0285  -23.0278 H       1  UNL1        0.0428
     29 H         -24.8962   61.9691  -22.6744 H       1  UNL1        0.0428
     30 H         -23.4696   64.5958  -23.7902 H       1  UNL1        0.0521
     31 H         -21.6551   64.1247  -24.9882 H       1  UNL1        0.0483
     32 H         -22.4460   62.6932  -25.6407 H       1  UNL1        0.0483
     33 H         -23.2284   66.4473  -26.9697 H       1  UNL1        0.0471
     34 H         -24.2866   65.2323  -27.7279 H       1  UNL1        0.0471
     35 H         -24.9010   66.5855  -23.7645 H       1  UNL1        0.0272
     36 H         -24.7246   67.5257  -25.3078 H       1  UNL1        0.0272
     37 H         -26.5600   65.0705  -24.8759 H       1  UNL1        0.0272
     38 H         -26.3802   65.9958  -26.4229 H       1  UNL1        0.0272
     39 H         -19.0512   64.6844  -28.0459 H       1  UNL1        0.0837
     40 H         -17.8691   60.7369  -27.8467 H       1  UNL1        0.0829
     41 H         -20.2327   59.9401  -27.6824 H       1  UNL1        0.0633
     42 H         -22.0666   61.6376  -27.6886 H       1  UNL1        0.0626
     43 H         -25.0383   62.1059  -28.7680 H       1  UNL1        0.1048
     44 H         -26.7348   60.6870  -23.1746 H       1  UNL1        0.0640
     45 H         -28.1791   58.6962  -24.2861 H       1  UNL1        0.0807
     46 H         -27.8056   58.8402  -26.7852 H       1  UNL1        0.1668
@<TRIPOS>BOND
     1     1    20    1
     2     2    20    1
     3     2     3    1
     4     3    21    1
     5     4    21    1
     6     4     5    1
     7     5     6    1
     8     5     2    1
     9     6     7    1
    10     7     5    1
    11     8     9    1
    12    10    22   ar
    13    11    12   ar
    14    13     9   ar
    15    15    23   ar
    16    16    24   ar
    17    17    18   ar
    18    17    14   ar
    19    19    25   ar
    20    20    14    1
    21    21     8   am
    22    25    16   ar
    23     8    26    2
    24     9    10   ar
    25    11    22   ar
    26    12    13   ar
    27    14    23   ar
    28    15    24   ar
    29    16    17   ar
    30    18    19   ar
    31     1    27    1
    32     1    28    1
    33     1    29    1
    34     2    30    1
    35     3    31    1
    36     3    32    1
    37     4    33    1
    38     4    34    1
    39     6    35    1
    40     6    36    1
    41     7    37    1
    42     7    38    1
    43    10    39    1
    44    11    40    1
    45    12    41    1
    46    13    42    1
    47    15    43    1
    48    18    44    1
    49    19    45    1
    50    25    46    1
@<TRIPOS>MOLECULE
CHEMBL3718794
 45 48 0 0 0
SMALL
GASTEIGER

@<TRIPOS>ATOM
      1 N         -25.2832   60.3274  -26.6422 N.ar    1  UNL1       -0.2200
      2 N         -25.1039   62.7232  -26.8847 N.ar    1  UNL1       -0.2178
      3 N         -23.5321   58.8044  -27.0662 N.pl3   1  UNL1       -0.3141
      4 N         -22.8927   63.4591  -27.4074 N.ar    1  UNL1       -0.3389
      5 N         -18.2224   59.1419  -27.8029 N.am    1  UNL1       -0.3253
      6 C         -25.7636   61.5845  -26.6288 C.ar    1  UNL1        0.1204
      7 C         -23.8087   62.4848  -27.1307 C.ar    1  UNL1        0.1442
      8 C         -23.1695   61.2545  -27.1599 C.ar    1  UNL1        0.0663
      9 C         -23.9784   60.1092  -26.9616 C.ar    1  UNL1        0.1344
     10 C         -22.7643   58.3675  -28.2244 C.3     1  UNL1        0.0161
     11 C         -23.5606   57.3967  -29.1028 C.3     1  UNL1       -0.0278
     12 C         -24.2073   56.2852  -28.2635 C.3     1  UNL1       -0.0450
     13 C         -24.9399   56.7565  -26.9968 C.3     1  UNL1       -0.0278
     14 C         -24.1123   57.7799  -26.2069 C.3     1  UNL1        0.0161
     15 C         -26.3621   57.2399  -27.2760 C.3     1  UNL1       -0.0610
     16 C         -24.5439   58.1337  -30.0121 C.3     1  UNL1       -0.0610
     17 C         -21.7754   61.5352  -27.3669 C.ar    1  UNL1        0.0130
     18 C         -21.6424   62.9107  -27.5693 C.ar    1  UNL1        0.0488
     19 C         -20.4170   63.5204  -27.8587 C.ar    1  UNL1       -0.0370
     20 C         -19.2888   62.6956  -27.9495 C.ar    1  UNL1       -0.0477
     21 C         -19.3693   61.3174  -27.7224 C.ar    1  UNL1        0.0372
     22 C         -20.6047   60.7442  -27.3928 C.ar    1  UNL1       -0.0397
     23 C         -18.1244   60.5056  -27.8524 C.2     1  UNL1        0.2416
     24 O         -17.0312   61.0326  -28.0256 O.2     1  UNL1       -0.2704
     25 H         -23.1192   64.4404  -27.4618 H       1  UNL1        0.1673
     26 H         -17.3614   58.6206  -27.9075 H       1  UNL1        0.1453
     27 H         -19.0764   58.6194  -27.6970 H       1  UNL1        0.1453
     28 H         -26.8174   61.6859  -26.3881 H       1  UNL1        0.1048
     29 H         -22.4160   59.1994  -28.8457 H       1  UNL1        0.0467
     30 H         -21.8684   57.8479  -27.8616 H       1  UNL1        0.0467
     31 H         -22.8442   56.9085  -29.7786 H       1  UNL1        0.0313
     32 H         -24.8678   55.6697  -28.8857 H       1  UNL1        0.0271
     33 H         -23.3980   55.6159  -27.9378 H       1  UNL1        0.0271
     34 H         -25.0557   55.8739  -26.3519 H       1  UNL1        0.0313
     35 H         -24.6955   58.2000  -25.3776 H       1  UNL1        0.0467
     36 H         -23.2776   57.2483  -25.7305 H       1  UNL1        0.0467
     37 H         -26.8956   57.4111  -26.3347 H       1  UNL1        0.0233
     38 H         -26.3928   58.1719  -27.8400 H       1  UNL1        0.0233
     39 H         -26.9226   56.4865  -27.8396 H       1  UNL1        0.0233
     40 H         -25.2092   58.8021  -29.4636 H       1  UNL1        0.0233
     41 H         -23.9963   58.7527  -30.7323 H       1  UNL1        0.0233
     42 H         -25.1539   57.4269  -30.5834 H       1  UNL1        0.0233
     43 H         -20.3342   64.5913  -28.0175 H       1  UNL1        0.0638
     44 H         -18.3274   63.1462  -28.1950 H       1  UNL1        0.0626
     45 H         -20.6907   59.6968  -27.1426 H       1  UNL1        0.0632
@<TRIPOS>BOND
     1     4     7   ar
     2     6     2   ar
     3     7     8   ar
     4     8    17   ar
     5     9     3    1
     6     9     1   ar
     7    10     3    1
     8    10    11    1
     9    11    12    1
    10    11    16    1
    11    12    13    1
    12    13    14    1
    13    13    15    1
    14    14     3    1
    15    18     4   ar
    16    18    19   ar
    17    20    21   ar
    18    21    23    1
    19    22    17   ar
    20    23     5   am
    21     6     1   ar
    22     7     2   ar
    23     8     9   ar
    24    17    18   ar
    25    19    20   ar
    26    21    22   ar
    27    23    24    2
    28     4    25    1
    29     5    26    1
    30     5    27    1
    31     6    28    1
    32    10    29    1
    33    10    30    1
    34    11    31    1
    35    12    32    1
    36    12    33    1
    37    13    34    1
    38    14    35    1
    39    14    36    1
    40    15    37    1
    41    15    38    1
    42    15    39    1
    43    16    40    1
    44    16    41    1
    45    16    42    1
    46    19    43    1
    47    20    44    1
    48    22    45    1
@<TRIPOS>MOLECULE
CHEMBL3719102
 42 45 0 0 0
SMALL
GASTEIGER

@<TRIPOS>ATOM
      1 N         -25.2894   60.3143  -26.6556 N.ar    1  UNL1       -0.2200
      2 N         -25.1131   62.7126  -26.8892 N.ar    1  UNL1       -0.2178
      3 N         -23.5253   58.7991  -27.0688 N.pl3   1  UNL1       -0.3143
      4 N         -22.9012   63.4532  -27.4079 N.ar    1  UNL1       -0.3389
      5 N         -18.2289   59.1358  -27.8082 N.am    1  UNL1       -0.3253
      6 C         -25.7715   61.5712  -26.6389 C.ar    1  UNL1        0.1204
      7 C         -23.8175   62.4773  -27.1364 C.ar    1  UNL1        0.1442
      8 C         -23.1774   61.2480  -27.1702 C.ar    1  UNL1        0.0663
      9 C         -23.9833   60.1012  -26.9714 C.ar    1  UNL1        0.1343
     10 C         -22.7943   58.3649  -28.2526 C.3     1  UNL1        0.0135
     11 C         -23.6025   57.3525  -29.0576 C.3     1  UNL1       -0.0369
     12 C         -24.0874   56.2083  -28.1721 C.3     1  UNL1       -0.0476
     13 C         -24.8864   56.7191  -26.9645 C.3     1  UNL1       -0.0280
     14 C         -24.0874   57.7788  -26.1894 C.3     1  UNL1        0.0161
     15 C         -26.2686   57.2278  -27.3791 C.3     1  UNL1       -0.0610
     16 C         -21.7845   61.5287  -27.3803 C.ar    1  UNL1        0.0130
     17 C         -21.6508   62.9055  -27.5727 C.ar    1  UNL1        0.0488
     18 C         -20.4246   63.5160  -27.8567 C.ar    1  UNL1       -0.0370
     19 C         -19.2967   62.6908  -27.9513 C.ar    1  UNL1       -0.0477
     20 C         -19.3786   61.3107  -27.7353 C.ar    1  UNL1        0.0372
     21 C         -20.6155   60.7360  -27.4146 C.ar    1  UNL1       -0.0397
     22 C         -18.1333   60.4994  -27.8657 C.2     1  UNL1        0.2416
     23 O         -17.0411   61.0268  -28.0442 O.2     1  UNL1       -0.2704
     24 H         -23.1274   64.4349  -27.4563 H       1  UNL1        0.1673
     25 H         -17.3674   58.6154  -27.9121 H       1  UNL1        0.1453
     26 H         -19.0811   58.6123  -27.6931 H       1  UNL1        0.1453
     27 H         -26.8257   61.6705  -26.3992 H       1  UNL1        0.1048
     28 H         -22.5300   59.1952  -28.9166 H       1  UNL1        0.0464
     29 H         -21.8573   57.8930  -27.9336 H       1  UNL1        0.0464
     30 H         -24.4558   57.8500  -29.5320 H       1  UNL1        0.0280
     31 H         -22.9810   56.9523  -29.8671 H       1  UNL1        0.0280
     32 H         -24.6888   55.5090  -28.7639 H       1  UNL1        0.0269
     33 H         -23.2165   55.6456  -27.8109 H       1  UNL1        0.0269
     34 H         -25.0532   55.8691  -26.2897 H       1  UNL1        0.0313
     35 H         -24.6914   58.2036  -25.3777 H       1  UNL1        0.0467
     36 H         -23.2449   57.2788  -25.6933 H       1  UNL1        0.0467
     37 H         -26.8466   57.5306  -26.4998 H       1  UNL1        0.0233
     38 H         -26.2124   58.0847  -28.0559 H       1  UNL1        0.0233
     39 H         -26.8297   56.4377  -27.8896 H       1  UNL1        0.0233
     40 H         -20.3403   64.5881  -28.0072 H       1  UNL1        0.0638
     41 H         -18.3343   63.1426  -28.1905 H       1  UNL1        0.0626
     42 H         -20.7041   59.6868  -27.1746 H       1  UNL1        0.0632
@<TRIPOS>BOND
     1     4     7   ar
     2     6     2   ar
     3     7     8   ar
     4     8    16   ar
     5     9     3    1
     6     9     1   ar
     7    10     3    1
     8    10    11    1
     9    11    12    1
    10    12    13    1
    11    13    14    1
    12    13    15    1
    13    14     3    1
    14    17     4   ar
    15    17    18   ar
    16    19    20   ar
    17    20    22    1
    18    21    16   ar
    19    22     5   am
    20     6     1   ar
    21     7     2   ar
    22     8     9   ar
    23    16    17   ar
    24    18    19   ar
    25    20    21   ar
    26    22    23    2
    27     4    24    1
    28     5    25    1
    29     5    26    1
    30     6    27    1
    31    10    28    1
    32    10    29    1
    33    11    30    1
    34    11    31    1
    35    12    32    1
    36    12    33    1
    37    13    34    1
    38    14    35    1
    39    14    36    1
    40    15    37    1
    41    15    38    1
    42    15    39    1
    43    18    40    1
    44    19    41    1
    45    21    42    1
@<TRIPOS>MOLECULE
CHEMBL3715588
 39 42 0 0 0
SMALL
GASTEIGER

@<TRIPOS>ATOM
      1 N         -25.3028   60.2898  -26.8408 N.ar    1  UNL1       -0.2200
      2 N         -25.1051   62.6989  -26.8719 N.ar    1  UNL1       -0.2178
      3 N         -23.4687   58.7984  -27.0023 N.pl3   1  UNL1       -0.3146
      4 N         -22.8691   63.4584  -27.2514 N.ar    1  UNL1       -0.3389
      5 N         -18.2911   59.1219  -28.1692 N.am    1  UNL1       -0.3253
      6 C         -25.7846   61.5459  -26.7759 C.ar    1  UNL1        0.1204
      7 C         -23.8025   62.4737  -27.0915 C.ar    1  UNL1        0.1442
      8 C         -23.1684   61.2457  -27.1940 C.ar    1  UNL1        0.0663
      9 C         -23.9668   60.0946  -27.0102 C.ar    1  UNL1        0.1343
     10 C         -22.4327   58.4477  -26.0341 C.3     1  UNL1        0.0135
     11 C         -22.9040   57.3444  -25.0899 C.3     1  UNL1       -0.0371
     12 C         -23.4971   56.1340  -25.8176 C.3     1  UNL1       -0.0502
     13 C         -23.7123   56.3814  -27.3087 C.3     1  UNL1       -0.0371
     14 C         -24.3396   57.7541  -27.5316 C.3     1  UNL1        0.0135
     15 C         -21.7987   61.5247  -27.5105 C.ar    1  UNL1        0.0130
     16 C         -21.6320   62.9108  -27.5006 C.ar    1  UNL1        0.0488
     17 C         -20.3972   63.5256  -27.7329 C.ar    1  UNL1       -0.0370
     18 C         -19.2959   62.6940  -27.9766 C.ar    1  UNL1       -0.0477
     19 C         -19.4242   61.3010  -28.0207 C.ar    1  UNL1        0.0372
     20 C         -20.6822   60.7192  -27.8217 C.ar    1  UNL1       -0.0397
     21 C         -18.2031   60.4831  -28.2753 C.2     1  UNL1        0.2416
     22 O         -17.1291   61.0054  -28.5532 O.2     1  UNL1       -0.2704
     23 H         -23.0821   64.4434  -27.2098 H       1  UNL1        0.1673
     24 H         -17.4430   58.5964  -28.3374 H       1  UNL1        0.1453
     25 H         -19.1192   58.6061  -27.9194 H       1  UNL1        0.1453
     26 H         -26.8557   61.6344  -26.6213 H       1  UNL1        0.1048
     27 H         -21.5514   58.0844  -26.5751 H       1  UNL1        0.0464
     28 H         -22.1071   59.3081  -25.4369 H       1  UNL1        0.0464
     29 H         -22.0631   57.0174  -24.4660 H       1  UNL1        0.0280
     30 H         -23.6552   57.7533  -24.4033 H       1  UNL1        0.0280
     31 H         -22.8529   55.2577  -25.6822 H       1  UNL1        0.0266
     32 H         -24.4572   55.8832  -25.3492 H       1  UNL1        0.0266
     33 H         -22.7501   56.3196  -27.8334 H       1  UNL1        0.0280
     34 H         -24.3533   55.5984  -27.7279 H       1  UNL1        0.0280
     35 H         -24.4846   57.9126  -28.6072 H       1  UNL1        0.0464
     36 H         -25.3258   57.7715  -27.0520 H       1  UNL1        0.0464
     37 H         -20.2844   64.6054  -27.7220 H       1  UNL1        0.0638
     38 H         -18.3207   63.1503  -28.1440 H       1  UNL1        0.0626
     39 H         -20.8346   59.6548  -27.9194 H       1  UNL1        0.0632
@<TRIPOS>BOND
     1     4     7   ar
     2     6     2   ar
     3     7     8   ar
     4     8    15   ar
     5     9     3    1
     6     9     1   ar
     7    10     3    1
     8    10    11    1
     9    11    12    1
    10    12    13    1
    11    13    14    1
    12    14     3    1
    13    16     4   ar
    14    16    17   ar
    15    18    19   ar
    16    19    21    1
    17    20    15   ar
    18    21     5   am
    19     6     1   ar
    20     7     2   ar
    21     8     9   ar
    22    15    16   ar
    23    17    18   ar
    24    19    20   ar
    25    21    22    2
    26     4    23    1
    27     5    24    1
    28     5    25    1
    29     6    26    1
    30    10    27    1
    31    10    28    1
    32    11    29    1
    33    11    30    1
    34    12    31    1
    35    12    32    1
    36    13    33    1
    37    13    34    1
    38    14    35    1
    39    14    36    1
    40    17    37    1
    41    18    38    1
    42    20    39    1
@<TRIPOS>MOLECULE
CHEMBL3719354
 39 42 0 0 0
SMALL
GASTEIGER

@<TRIPOS>ATOM
      1 N         -25.3028   60.2898  -26.8408 N.ar    1  UNL1       -0.2200
      2 N         -25.1051   62.6989  -26.8719 N.ar    1  UNL1       -0.2178
      3 N         -23.4687   58.7984  -27.0023 N.pl3   1  UNL1       -0.3146
      4 N         -22.8691   63.4584  -27.2514 N.ar    1  UNL1       -0.3389
      5 N         -18.2911   59.1219  -28.1692 N.am    1  UNL1       -0.3253
      6 C         -25.7846   61.5459  -26.7759 C.ar    1  UNL1        0.1204
      7 C         -23.8025   62.4737  -27.0915 C.ar    1  UNL1        0.1442
      8 C         -23.1684   61.2457  -27.1940 C.ar    1  UNL1        0.0663
      9 C         -23.9668   60.0946  -27.0102 C.ar    1  UNL1        0.1343
     10 C         -22.4327   58.4477  -26.0341 C.3     1  UNL1        0.0135
     11 C         -22.9040   57.3444  -25.0899 C.3     1  UNL1       -0.0371
     12 C         -23.4971   56.1340  -25.8176 C.3     1  UNL1       -0.0502
     13 C         -23.7123   56.3814  -27.3087 C.3     1  UNL1       -0.0371
     14 C         -24.3396   57.7541  -27.5316 C.3     1  UNL1        0.0135
     15 C         -21.7987   61.5247  -27.5105 C.ar    1  UNL1        0.0130
     16 C         -21.6320   62.9108  -27.5006 C.ar    1  UNL1        0.0488
     17 C         -20.3972   63.5256  -27.7329 C.ar    1  UNL1       -0.0370
     18 C         -19.2959   62.6940  -27.9766 C.ar    1  UNL1       -0.0477
     19 C         -19.4242   61.3010  -28.0207 C.ar    1  UNL1        0.0372
     20 C         -20.6822   60.7192  -27.8217 C.ar    1  UNL1       -0.0397
     21 C         -18.2031   60.4831  -28.2753 C.2     1  UNL1        0.2416
     22 O         -17.1291   61.0054  -28.5532 O.2     1  UNL1       -0.2704
     23 H         -23.0821   64.4434  -27.2098 H       1  UNL1        0.1673
     24 H         -17.4430   58.5964  -28.3374 H       1  UNL1        0.1453
     25 H         -19.1192   58.6061  -27.9194 H       1  UNL1        0.1453
     26 H         -26.8557   61.6344  -26.6213 H       1  UNL1        0.1048
     27 H         -21.5514   58.0844  -26.5751 H       1  UNL1        0.0464
     28 H         -22.1071   59.3081  -25.4369 H       1  UNL1        0.0464
     29 H         -22.0631   57.0174  -24.4660 H       1  UNL1        0.0280
     30 H         -23.6552   57.7533  -24.4033 H       1  UNL1        0.0280
     31 H         -22.8529   55.2577  -25.6822 H       1  UNL1        0.0266
     32 H         -24.4572   55.8832  -25.3492 H       1  UNL1        0.0266
     33 H         -22.7501   56.3196  -27.8334 H       1  UNL1        0.0280
     34 H         -24.3533   55.5984  -27.7279 H       1  UNL1        0.0280
     35 H         -24.4846   57.9126  -28.6072 H       1  UNL1        0.0464
     36 H         -25.3258   57.7715  -27.0520 H       1  UNL1        0.0464
     37 H         -20.2844   64.6054  -27.7220 H       1  UNL1        0.0638
     38 H         -18.3207   63.1503  -28.1440 H       1  UNL1        0.0626
     39 H         -20.8346   59.6548  -27.9194 H       1  UNL1        0.0632
@<TRIPOS>BOND
     1     4     7   ar
     2     6     2   ar
     3     7     8   ar
     4     8    15   ar
     5     9     3    1
     6     9     1   ar
     7    10     3    1
     8    10    11    1
     9    11    12    1
    10    12    13    1
    11    13    14    1
    12    14     3    1
    13    16     4   ar
    14    16    17   ar
    15    18    19   ar
    16    19    21    1
    17    20    15   ar
    18    21     5   am
    19     6     1   ar
    20     7     2   ar
    21     8     9   ar
    22    15    16   ar
    23    17    18   ar
    24    19    20   ar
    25    21    22    2
    26     4    23    1
    27     5    24    1
    28     5    25    1
    29     6    26    1
    30    10    27    1
    31    10    28    1
    32    11    29    1
    33    11    30    1
    34    12    31    1
    35    12    32    1
    36    13    33    1
    37    13    34    1
    38    14    35    1
    39    14    36    1
    40    17    37    1
    41    18    38    1
    42    20    39    1
@<TRIPOS>MOLECULE
CHEMBL3716162
 42 45 0 0 0
SMALL
GASTEIGER

@<TRIPOS>ATOM
      1 N         -25.2910   60.2868  -26.7710 N.ar    1  UNL1       -0.2200
      2 N         -25.1213   62.6969  -26.8603 N.ar    1  UNL1       -0.2178
      3 N         -23.4448   58.8156  -26.9546 N.pl3   1  UNL1       -0.3145
      4 N         -22.9004   63.4750  -27.2771 N.ar    1  UNL1       -0.3389
      5 N         -17.0319   60.9796  -28.4868 N.am    1  UNL1       -0.3253
      6 C         -25.7857   61.5382  -26.7298 C.ar    1  UNL1        0.1204
      7 C         -23.8183   62.4816  -27.0871 C.ar    1  UNL1        0.1442
      8 C         -23.1691   61.2598  -27.1691 C.ar    1  UNL1        0.0663
      9 C         -23.9553   60.1029  -26.9559 C.ar    1  UNL1        0.1343
     10 C         -22.3775   58.4801  -26.0145 C.3     1  UNL1        0.0138
     11 C         -22.9240   57.6769  -24.8321 C.3     1  UNL1       -0.0345
     12 C         -23.7667   56.4709  -25.2710 C.3     1  UNL1       -0.0410
     13 C         -24.8614   56.9345  -26.2446 C.3     1  UNL1       -0.0345
     14 C         -24.2949   57.7266  -27.4218 C.3     1  UNL1        0.0138
     15 C         -22.8997   55.3581  -25.8678 C.3     1  UNL1       -0.0623
     16 C         -21.8024   61.5524  -27.4989 C.ar    1  UNL1        0.0130
     17 C         -21.6568   62.9410  -27.5220 C.ar    1  UNL1        0.0488
     18 C         -20.4311   63.5707  -27.7686 C.ar    1  UNL1       -0.0370
     19 C         -19.3098   62.7582  -27.9946 C.ar    1  UNL1       -0.0477
     20 C         -19.4161   61.3643  -28.0055 C.ar    1  UNL1        0.0372
     21 C         -20.6664   60.7655  -27.7836 C.ar    1  UNL1       -0.0397
     22 C         -18.2585   60.4458  -28.2138 C.2     1  UNL1        0.2416
     23 O         -18.3841   59.2279  -28.1342 O.2     1  UNL1       -0.2704
     24 H         -23.1283   64.4569  -27.2510 H       1  UNL1        0.1673
     25 H         -16.2734   60.3212  -28.6114 H       1  UNL1        0.1453
     26 H         -16.8280   61.9604  -28.5821 H       1  UNL1        0.1453
     27 H         -26.8562   61.6180  -26.5673 H       1  UNL1        0.1048
     28 H         -21.6152   57.8938  -26.5397 H       1  UNL1        0.0464
     29 H         -21.8712   59.3662  -25.6163 H       1  UNL1        0.0464
     30 H         -22.0926   57.3497  -24.1964 H       1  UNL1        0.0283
     31 H         -23.5496   58.3364  -24.2166 H       1  UNL1        0.0283
     32 H         -24.2576   56.0543  -24.3822 H       1  UNL1        0.0299
     33 H         -25.4277   56.0730  -26.6170 H       1  UNL1        0.0283
     34 H         -25.5730   57.5648  -25.6958 H       1  UNL1        0.0283
     35 H         -23.6905   57.0641  -28.0529 H       1  UNL1        0.0464
     36 H         -25.1092   58.0811  -28.0660 H       1  UNL1        0.0464
     37 H         -22.2220   54.9543  -25.1078 H       1  UNL1        0.0232
     38 H         -23.5222   54.5334  -26.2303 H       1  UNL1        0.0232
     39 H         -22.2868   55.7047  -26.7050 H       1  UNL1        0.0232
     40 H         -20.3416   64.6530  -27.7750 H       1  UNL1        0.0638
     41 H         -18.3592   63.2533  -28.1598 H       1  UNL1        0.0626
     42 H         -20.7593   59.6840  -27.8257 H       1  UNL1        0.0632
@<TRIPOS>BOND
     1     4     7   ar
     2     6     2   ar
     3     7     8   ar
     4     8    16   ar
     5     9     3    1
     6     9     1   ar
     7    10     3    1
     8    10    11    1
     9    11    12    1
    10    12    13    1
    11    12    15    1
    12    13    14    1
    13    14     3    1
    14    17     4   ar
    15    17    18   ar
    16    19    20   ar
    17    20    22    1
    18    21    16   ar
    19    22     5   am
    20     6     1   ar
    21     7     2   ar
    22     8     9   ar
    23    16    17   ar
    24    18    19   ar
    25    20    21   ar
    26    22    23    2
    27     4    24    1
    28     5    25    1
    29     5    26    1
    30     6    27    1
    31    10    28    1
    32    10    29    1
    33    11    30    1
    34    11    31    1
    35    12    32    1
    36    13    33    1
    37    13    34    1
    38    14    35    1
    39    14    36    1
    40    15    37    1
    41    15    38    1
    42    15    39    1
    43    18    40    1
    44    19    41    1
    45    21    42    1
@<TRIPOS>MOLECULE
CHEMBL3715037
 45 48 0 0 0
SMALL
GASTEIGER

@<TRIPOS>ATOM
      1 N         -25.2413   60.2684  -26.6518 N.ar    1  UNL1       -0.2200
      2 N         -25.1112   62.6700  -26.8935 N.ar    1  UNL1       -0.2178
      3 N         -23.4413   58.7865  -27.0282 N.pl3   1  UNL1       -0.3115
      4 N         -22.9153   63.4521  -27.4257 N.ar    1  UNL1       -0.3389
      5 N         -18.1886   59.1978  -27.8621 N.am    1  UNL1       -0.3253
      6 C         -25.7475   61.5161  -26.6402 C.ar    1  UNL1        0.1204
      7 C         -23.8140   62.4589  -27.1549 C.ar    1  UNL1        0.1442
      8 C         -23.1532   61.2411  -27.1972 C.ar    1  UNL1        0.0663
      9 C         -23.9308   60.0830  -26.9635 C.ar    1  UNL1        0.1346
     10 C         -22.8540   58.3264  -28.2786 C.3     1  UNL1        0.0138
     11 C         -23.5114   57.0439  -28.7644 C.3     1  UNL1       -0.0371
     12 C         -23.4526   55.9823  -27.6780 C.3     1  UNL1       -0.0500
     13 C         -24.1737   56.4697  -26.4278 C.3     1  UNL1       -0.0343
     14 C         -23.7671   57.8686  -25.9331 C.3     1  UNL1        0.0246
     15 C         -22.6572   57.8681  -24.8598 C.3     1  UNL1       -0.0372
     16 C         -21.2921   57.3391  -25.2669 C.3     1  UNL1       -0.0636
     17 C         -21.7729   61.5441  -27.4418 C.ar    1  UNL1        0.0130
     18 C         -21.6571   62.9259  -27.6034 C.ar    1  UNL1        0.0488
     19 C         -20.4367   63.5566  -27.8731 C.ar    1  UNL1       -0.0370
     20 C         -19.2965   62.7479  -27.9811 C.ar    1  UNL1       -0.0477
     21 C         -19.3634   61.3621  -27.8069 C.ar    1  UNL1        0.0372
     22 C         -20.5971   60.7690  -27.5169 C.ar    1  UNL1       -0.0397
     23 C         -18.1097   60.5625  -27.9322 C.2     1  UNL1        0.2416
     24 O         -17.0225   61.1015  -28.1084 O.2     1  UNL1       -0.2704
     25 H         -23.1562   64.4310  -27.4571 H       1  UNL1        0.1673
     26 H         -17.3205   58.6863  -27.9544 H       1  UNL1        0.1453
     27 H         -19.0330   58.6632  -27.7396 H       1  UNL1        0.1453
     28 H         -26.8030   61.5961  -26.3985 H       1  UNL1        0.1048
     29 H         -22.9337   59.0801  -29.0720 H       1  UNL1        0.0464
     30 H         -21.7885   58.1256  -28.1368 H       1  UNL1        0.0464
     31 H         -24.5539   57.2361  -29.0445 H       1  UNL1        0.0280
     32 H         -22.9947   56.6832  -29.6612 H       1  UNL1        0.0280
     33 H         -23.9231   55.0599  -28.0366 H       1  UNL1        0.0266
     34 H         -22.4103   55.7347  -27.4541 H       1  UNL1        0.0266
     35 H         -25.2458   56.5026  -26.6678 H       1  UNL1        0.0283
     36 H         -24.0704   55.7315  -25.6240 H       1  UNL1        0.0283
     37 H         -24.6542   58.2365  -25.3976 H       1  UNL1        0.0500
     38 H         -22.5260   58.8920  -24.4857 H       1  UNL1        0.0280
     39 H         -23.0049   57.2753  -24.0042 H       1  UNL1        0.0280
     40 H         -20.6169   57.3617  -24.4045 H       1  UNL1        0.0230
     41 H         -21.3399   56.3059  -25.6148 H       1  UNL1        0.0230
     42 H         -20.8359   57.9520  -26.0442 H       1  UNL1        0.0230
     43 H         -20.3640   64.6332  -27.9933 H       1  UNL1        0.0638
     44 H         -18.3369   63.2173  -28.1960 H       1  UNL1        0.0626
     45 H         -20.6758   59.7144  -27.3211 H       1  UNL1        0.0632
@<TRIPOS>BOND
     1     4     7   ar
     2     6     2   ar
     3     7     8   ar
     4     8    17   ar
     5     9     3    1
     6     9     1   ar
     7    10     3    1
     8    10    11    1
     9    11    12    1
    10    12    13    1
    11    13    14    1
    12    14    15    1
    13    14     3    1
    14    15    16    1
    15    18     4   ar
    16    18    19   ar
    17    20    21   ar
    18    21    23    1
    19    22    17   ar
    20    23     5   am
    21     6     1   ar
    22     7     2   ar
    23     8     9   ar
    24    17    18   ar
    25    19    20   ar
    26    21    22   ar
    27    23    24    2
    28     4    25    1
    29     5    26    1
    30     5    27    1
    31     6    28    1
    32    10    29    1
    33    10    30    1
    34    11    31    1
    35    11    32    1
    36    12    33    1
    37    12    34    1
    38    13    35    1
    39    13    36    1
    40    14    37    1
    41    15    38    1
    42    15    39    1
    43    16    40    1
    44    16    41    1
    45    16    42    1
    46    19    43    1
    47    20    44    1
    48    22    45    1
@<TRIPOS>MOLECULE
CHEMBL3715974
 42 45 0 0 0
SMALL
GASTEIGER

@<TRIPOS>ATOM
      1 C         -24.7629   55.7896  -27.3782 C.3     1  UNL1       -0.0516
      2 C         -23.6125   55.9611  -28.3670 C.3     1  UNL1       -0.0516
      3 C         -23.5728   57.3187  -29.0626 C.3     1  UNL1       -0.0372
      4 C         -22.8094   58.3671  -28.2538 C.3     1  UNL1        0.0135
      5 C         -23.9778   57.8421  -26.0583 C.3     1  UNL1        0.0135
      6 C         -25.1596   57.0236  -26.5675 C.3     1  UNL1       -0.0372
      7 C         -23.9768   60.1018  -26.9697 C.ar    1  UNL1        0.1343
      8 C         -25.7732   61.5611  -26.6483 C.ar    1  UNL1        0.1204
      9 C         -23.8224   62.4778  -27.1435 C.ar    1  UNL1        0.1442
     10 C         -23.1772   61.2516  -27.1730 C.ar    1  UNL1        0.0663
     11 C         -21.7858   61.5353  -27.3835 C.ar    1  UNL1        0.0130
     12 C         -21.6556   62.9120  -27.5768 C.ar    1  UNL1        0.0488
     13 C         -20.4298   63.5242  -27.8601 C.ar    1  UNL1       -0.0370
     14 C         -19.3004   62.7002  -27.9544 C.ar    1  UNL1       -0.0477
     15 C         -19.3802   61.3200  -27.7386 C.ar    1  UNL1        0.0372
     16 C         -20.6161   60.7442  -27.4175 C.ar    1  UNL1       -0.0397
     17 C         -18.1347   60.5091  -27.8687 C.2     1  UNL1        0.2416
     18 N         -23.5016   58.8004  -27.0480 N.pl3   1  UNL1       -0.3146
     19 N         -25.2849   60.3059  -26.6586 N.ar    1  UNL1       -0.2200
     20 N         -25.1199   62.7062  -26.8994 N.ar    1  UNL1       -0.2178
     21 N         -22.9082   63.4565  -27.4137 N.ar    1  UNL1       -0.3389
     22 N         -18.2305   59.1452  -27.8143 N.am    1  UNL1       -0.3253
     23 O         -17.0423   61.0370  -28.0443 O.2     1  UNL1       -0.2704
     24 H         -25.6503   55.4427  -27.9224 H       1  UNL1        0.0266
     25 H         -24.4999   54.9762  -26.6898 H       1  UNL1        0.0266
     26 H         -22.6590   55.7754  -27.8559 H       1  UNL1        0.0266
     27 H         -23.6987   55.1726  -29.1251 H       1  UNL1        0.0266
     28 H         -23.0368   57.1894  -30.0119 H       1  UNL1        0.0280
     29 H         -24.5806   57.6656  -29.3165 H       1  UNL1        0.0280
     30 H         -21.8309   57.9593  -27.9750 H       1  UNL1        0.0464
     31 H         -22.6141   59.2104  -28.9273 H       1  UNL1        0.0464
     32 H         -23.1527   57.1815  -25.7647 H       1  UNL1        0.0464
     33 H         -24.2708   58.3642  -25.1376 H       1  UNL1        0.0464
     34 H         -25.7460   56.6770  -25.7075 H       1  UNL1        0.0280
     35 H         -25.8358   57.6477  -27.1638 H       1  UNL1        0.0280
     36 H         -26.8287   61.6561  -26.4124 H       1  UNL1        0.1048
     37 H         -20.3468   64.5963  -28.0105 H       1  UNL1        0.0638
     38 H         -18.3385   63.1532  -28.1932 H       1  UNL1        0.0626
     39 H         -20.7031   59.6955  -27.1759 H       1  UNL1        0.0632
     40 H         -23.1367   64.4376  -27.4628 H       1  UNL1        0.1673
     41 H         -17.3690   58.6246  -27.9179 H       1  UNL1        0.1453
     42 H         -19.0832   58.6215  -27.7036 H       1  UNL1        0.1453
@<TRIPOS>BOND
     1     1     2    1
     2     2     3    1
     3     3     4    1
     4     4    18    1
     5     5    18    1
     6     5     6    1
     7     6     1    1
     8     8    19   ar
     9     9    20   ar
    10    10    11   ar
    11    10     7   ar
    12    12    21   ar
    13    12    13   ar
    14    14    15   ar
    15    15    17    1
    16    16    11   ar
    17    17    22   am
    18    18     7    1
    19    21     9   ar
    20     7    19   ar
    21     8    20   ar
    22     9    10   ar
    23    11    12   ar
    24    13    14   ar
    25    15    16   ar
    26    17    23    2
    27     1    24    1
    28     1    25    1
    29     2    26    1
    30     2    27    1
    31     3    28    1
    32     3    29    1
    33     4    30    1
    34     4    31    1
    35     5    32    1
    36     5    33    1
    37     6    34    1
    38     6    35    1
    39     8    36    1
    40    13    37    1
    41    14    38    1
    42    16    39    1
    43    21    40    1
    44    22    41    1
    45    22    42    1
@<TRIPOS>MOLECULE
CHEMBL3356065
 49 52 0 0 0
SMALL
GASTEIGER

@<TRIPOS>ATOM
      1 C         -26.6550   60.5832  -26.5046 C.ar    1  UNL1        0.1434
      2 C         -25.1464   62.0846  -25.9030 C.ar    1  UNL1        0.1204
      3 C         -25.5489   61.8552  -28.1853 C.ar    1  UNL1        0.1341
      4 C         -26.5099   60.8731  -27.8539 C.ar    1  UNL1        0.0614
      5 C         -27.4741   60.0639  -28.5518 C.ar    1  UNL1       -0.0206
      6 C         -28.1125   59.2862  -27.5999 C.ar    1  UNL1        0.0071
      7 C         -27.7765   60.0603  -30.0070 C.3     1  UNL1       -0.0376
      8 C         -25.0288   63.6327  -29.7702 C.3     1  UNL1        0.0319
      9 C         -23.5379   63.9885  -30.0462 C.3     1  UNL1        0.0389
     10 C         -23.6772   61.8950  -31.3830 C.3     1  UNL1        0.0308
     11 C         -24.4486   61.2249  -30.2336 C.3     1  UNL1        0.0294
     12 C         -21.4486   62.8058  -30.9353 C.2     1  UNL1        0.2202
     13 C         -20.5385   63.6977  -30.0989 C.3     1  UNL1        0.0493
     14 C         -19.9679   62.9652  -28.9059 C.ar    1  UNL1       -0.0386
     15 C         -20.5806   63.0534  -27.6483 C.ar    1  UNL1       -0.0581
     16 C         -20.0660   62.3508  -26.5581 C.ar    1  UNL1       -0.0615
     17 C         -18.9351   61.5525  -26.7127 C.ar    1  UNL1       -0.0617
     18 C         -18.3201   61.4525  -27.9589 C.ar    1  UNL1       -0.0615
     19 C         -18.8355   62.1517  -29.0514 C.ar    1  UNL1       -0.0581
     20 C         -23.4941   65.3410  -30.7690 C.3     1  UNL1       -0.0450
     21 N         -26.0003   61.1413  -25.4772 N.ar    1  UNL1       -0.2178
     22 N         -24.8947   62.4744  -27.1679 N.ar    1  UNL1       -0.2200
     23 N         -27.6041   59.6100  -26.3710 N.ar    1  UNL1       -0.3454
     24 N         -25.2510   62.2118  -29.4921 N.pl3   1  UNL1       -0.3113
     25 N         -22.8253   62.9569  -30.8382 N.am    1  UNL1       -0.2954
     26 O         -20.9460   61.9416  -31.6627 O.2     1  UNL1       -0.2752
     27 H         -24.5853   62.5987  -25.1287 H       1  UNL1        0.1048
     28 H         -28.8975   58.5471  -27.6951 H       1  UNL1        0.0810
     29 H         -28.8425   59.8774  -30.1796 H       1  UNL1        0.0278
     30 H         -27.5347   61.0194  -30.4735 H       1  UNL1        0.0278
     31 H         -27.2106   59.2708  -30.5109 H       1  UNL1        0.0278
     32 H         -25.6244   63.8675  -30.6625 H       1  UNL1        0.0482
     33 H         -25.4295   64.2823  -28.9805 H       1  UNL1        0.0482
     34 H         -23.0285   64.0764  -29.0838 H       1  UNL1        0.0513
     35 H         -24.3634   62.3523  -32.1054 H       1  UNL1        0.0480
     36 H         -23.0942   61.1387  -31.9169 H       1  UNL1        0.0480
     37 H         -25.0897   60.4376  -30.6387 H       1  UNL1        0.0480
     38 H         -23.7197   60.7504  -29.5617 H       1  UNL1        0.0480
     39 H         -19.7196   64.0323  -30.7494 H       1  UNL1        0.0407
     40 H         -21.0249   64.6148  -29.7656 H       1  UNL1        0.0407
     41 H         -21.4679   63.6634  -27.5029 H       1  UNL1        0.0620
     42 H         -20.5533   62.4220  -25.5895 H       1  UNL1        0.0618
     43 H         -18.5380   61.0023  -25.8643 H       1  UNL1        0.0618
     44 H         -17.4439   60.8221  -28.0842 H       1  UNL1        0.0618
     45 H         -18.3570   62.0477  -30.0236 H       1  UNL1        0.0620
     46 H         -23.9520   66.1225  -30.1537 H       1  UNL1        0.0248
     47 H         -22.4737   65.6542  -31.0055 H       1  UNL1        0.0248
     48 H         -24.0379   65.2941  -31.7196 H       1  UNL1        0.0248
     49 H         -27.8879   59.2214  -25.4836 H       1  UNL1        0.1668
@<TRIPOS>BOND
     1     2    21   ar
     2     3    22   ar
     3     3    24    1
     4     4     5   ar
     5     4     1   ar
     6     6    23   ar
     7     7     5    1
     8     8    24    1
     9     8     9    1
    10     9    25    1
    11     9    20    1
    12    10    25    1
    13    10    11    1
    14    11    24    1
    15    13    12    1
    16    13    14    1
    17    15    16   ar
    18    17    18   ar
    19    19    14   ar
    20    23     1   ar
    21    25    12   am
    22     1    21   ar
    23     2    22   ar
    24     3     4   ar
    25     5     6   ar
    26    12    26    2
    27    14    15   ar
    28    16    17   ar
    29    18    19   ar
    30     2    27    1
    31     6    28    1
    32     7    29    1
    33     7    30    1
    34     7    31    1
    35     8    32    1
    36     8    33    1
    37     9    34    1
    38    10    35    1
    39    10    36    1
    40    11    37    1
    41    11    38    1
    42    13    39    1
    43    13    40    1
    44    15    41    1
    45    16    42    1
    46    17    43    1
    47    18    44    1
    48    19    45    1
    49    20    46    1
    50    20    47    1
    51    20    48    1
    52    23    49    1
@<TRIPOS>MOLECULE
CHEMBL1630790
 50 53 0 0 0
SMALL
GASTEIGER

@<TRIPOS>ATOM
      1 N         -23.8356   60.7477  -26.7738 N.ar    1  UNL1       -0.2200
      2 N         -25.1953   62.7307  -26.8592 N.ar    1  UNL1       -0.2178
      3 N         -27.5302   62.2698  -26.9114 N.ar    1  UNL1       -0.3457
      4 N         -24.6120   58.5195  -26.8378 N.pl3   1  UNL1       -0.3131
      5 N         -20.9357   58.8521  -26.3023 N.3     1  UNL1       -0.2963
      6 C         -24.0315   62.0761  -26.8001 C.ar    1  UNL1        0.1204
      7 C         -26.2232   61.8737  -26.8742 C.ar    1  UNL1        0.1432
      8 C         -28.3482   61.1747  -26.8811 C.ar    1  UNL1        0.0042
      9 C         -27.5399   60.0575  -26.8389 C.ar    1  UNL1       -0.0318
     10 C         -26.1739   60.4830  -26.8526 C.ar    1  UNL1        0.0585
     11 C         -24.8857   59.8821  -26.8228 C.ar    1  UNL1        0.1338
     12 C         -23.3072   57.9717  -26.3978 C.3     1  UNL1        0.0399
     13 C         -22.0686   58.4903  -27.1790 C.3     1  UNL1        0.0181
     14 C         -20.5848   57.7371  -25.4291 C.3     1  UNL1       -0.0004
     15 C         -21.7538   57.2848  -24.5344 C.3     1  UNL1       -0.0359
     16 C         -23.1206   57.9319  -24.8589 C.3     1  UNL1       -0.0229
     17 C         -23.2567   59.2661  -24.1178 C.3     1  UNL1       -0.0606
     18 C         -19.7958   59.3481  -27.0804 C.3     1  UNL1        0.0269
     19 C         -19.9738   60.8003  -27.4565 C.ar    1  UNL1        0.0046
     20 C         -20.2046   61.1815  -28.7800 C.ar    1  UNL1        0.1628
     21 C         -20.3914   62.5215  -29.1077 C.ar    1  UNL1        0.1587
     22 C         -20.3454   63.5071  -28.1262 C.ar    1  UNL1       -0.0236
     23 C         -20.1158   63.1449  -26.7999 C.ar    1  UNL1       -0.0586
     24 C         -19.9373   61.7990  -26.4667 C.ar    1  UNL1       -0.0544
     25 C         -25.6258   57.5781  -27.2773 C.3     1  UNL1        0.0024
     26 F         -20.6169   62.8781  -30.3802 F       1  UNL1       -0.2025
     27 F         -20.2502   60.2528  -29.7474 F       1  UNL1       -0.2022
     28 H         -27.8178   63.2377  -26.9393 H       1  UNL1        0.1668
     29 H         -23.1360   62.6860  -26.7702 H       1  UNL1        0.1048
     30 H         -29.4244   61.2821  -26.8848 H       1  UNL1        0.0807
     31 H         -27.9064   59.0425  -26.7913 H       1  UNL1        0.0640
     32 H         -23.3283   56.9024  -26.6612 H       1  UNL1        0.0515
     33 H         -21.7483   57.6863  -27.8592 H       1  UNL1        0.0445
     34 H         -22.3282   59.3137  -27.8482 H       1  UNL1        0.0445
     35 H         -20.2271   56.8822  -26.0181 H       1  UNL1        0.0427
     36 H         -19.7555   58.0270  -24.7714 H       1  UNL1        0.0427
     37 H         -21.8550   56.1965  -24.6396 H       1  UNL1        0.0281
     38 H         -21.4978   57.4592  -23.4817 H       1  UNL1        0.0281
     39 H         -23.9003   57.2791  -24.4414 H       1  UNL1        0.0317
     40 H         -23.0617   59.1302  -23.0478 H       1  UNL1        0.0233
     41 H         -22.5591   60.0243  -24.4824 H       1  UNL1        0.0233
     42 H         -24.2747   59.6586  -24.1927 H       1  UNL1        0.0233
     43 H         -18.8745   59.2977  -26.4840 H       1  UNL1        0.0477
     44 H         -19.6057   58.7234  -27.9627 H       1  UNL1        0.0477
     45 H         -20.4941   64.5466  -28.4009 H       1  UNL1        0.0647
     46 H         -20.0866   63.9043  -26.0222 H       1  UNL1        0.0619
     47 H         -19.7851   61.5186  -25.4254 H       1  UNL1        0.0622
     48 H         -26.3161   57.3452  -26.4608 H       1  UNL1        0.0428
     49 H         -26.1835   57.9553  -28.1417 H       1  UNL1        0.0428
     50 H         -25.1824   56.6320  -27.6079 H       1  UNL1        0.0428
@<TRIPOS>BOND
     1     3     8   ar
     2     6     2   ar
     3     7     3   ar
     4     9    10   ar
     5    10     7   ar
     6    11     4    1
     7    11     1   ar
     8    12     4    1
     9    12    13    1
    10    13     5    1
    11    14     5    1
    12    14    15    1
    13    15    16    1
    14    16    17    1
    15    16    12    1
    16    18     5    1
    17    18    19    1
    18    20    21   ar
    19    20    27    1
    20    21    26    1
    21    22    23   ar
    22    24    19   ar
    23    25     4    1
    24     6     1   ar
    25     7     2   ar
    26     8     9   ar
    27    10    11   ar
    28    19    20   ar
    29    21    22   ar
    30    23    24   ar
    31     3    28    1
    32     6    29    1
    33     8    30    1
    34     9    31    1
    35    12    32    1
    36    13    33    1
    37    13    34    1
    38    14    35    1
    39    14    36    1
    40    15    37    1
    41    15    38    1
    42    16    39    1
    43    17    40    1
    44    17    41    1
    45    17    42    1
    46    18    43    1
    47    18    44    1
    48    22    45    1
    49    23    46    1
    50    24    47    1
    51    25    48    1
    52    25    49    1
    53    25    50    1
@<TRIPOS>MOLECULE
CHEMBL4167162
 47 50 0 0 0
SMALL
GASTEIGER

@<TRIPOS>ATOM
      1 C         -25.7117   57.7901  -26.4932 C.ar    1  UNL1        0.0342
      2 C         -27.0194   58.2035  -26.2650 C.ar    1  UNL1       -0.0384
      3 C         -27.3381   59.5678  -26.2883 C.ar    1  UNL1       -0.0338
      4 C         -26.3829   60.5490  -26.5282 C.ar    1  UNL1        0.0761
      5 C         -25.0578   60.1579  -26.7597 C.ar    1  UNL1        0.0422
      6 C         -24.7506   58.7682  -26.7472 C.ar    1  UNL1       -0.0280
      7 C         -24.1331   61.2095  -26.9828 C.ar    1  UNL1        0.1339
      8 C         -25.8244   62.7367  -26.7580 C.ar    1  UNL1        0.1187
      9 C         -21.6301   61.6858  -27.4753 C.ar    1  UNL1        0.0325
     10 C         -20.4077   61.0168  -27.6808 C.ar    1  UNL1       -0.0391
     11 C         -19.2255   61.7163  -27.9415 C.ar    1  UNL1       -0.0416
     12 C         -19.2511   63.1037  -28.0082 C.ar    1  UNL1        0.0411
     13 C         -20.4475   63.7885  -27.8228 C.ar    1  UNL1       -0.0416
     14 C         -21.6286   63.0801  -27.5644 C.ar    1  UNL1       -0.0391
     15 C         -24.1891   55.8073  -26.6548 C.2     1  UNL1        0.2313
     16 C         -24.2488   54.2782  -26.7095 C.3     1  UNL1        0.0760
     17 C         -25.3515   53.3827  -24.7074 C.3     1  UNL1       -0.0006
     18 C         -24.9781   52.3555  -23.6463 C.3     1  UNL1       -0.0390
     19 C         -23.6262   51.7995  -24.0707 C.3     1  UNL1       -0.0390
     20 C         -23.3324   52.4496  -25.4102 C.3     1  UNL1       -0.0006
     21 N         -24.5310   62.4940  -26.9857 N.ar    1  UNL1       -0.2200
     22 N         -26.7727   61.8244  -26.5269 N.ar    1  UNL1       -0.2353
     23 N         -22.7726   60.9041  -27.2253 N.pl3   1  UNL1       -0.2989
     24 N         -25.4290   56.4071  -26.4701 N.am    1  UNL1       -0.2844
     25 N         -24.0864   53.7038  -25.3655 N.3     1  UNL1       -0.2940
     26 CL        -17.8015   63.9736  -28.3230 Cl      1  UNL1       -0.0835
     27 O         -23.1187   56.3945  -26.8030 O.2     1  UNL1       -0.2741
     28 H         -27.8126   57.4874  -26.0684 H       1  UNL1        0.0637
     29 H         -28.3673   59.8752  -26.1104 H       1  UNL1        0.0639
     30 H         -23.7343   58.4604  -26.9450 H       1  UNL1        0.0644
     31 H         -26.1336   63.7763  -26.7605 H       1  UNL1        0.1048
     32 H         -20.3634   59.9302  -27.6370 H       1  UNL1        0.0636
     33 H         -18.2977   61.1710  -28.0896 H       1  UNL1        0.0633
     34 H         -20.4765   64.8731  -27.8760 H       1  UNL1        0.0633
     35 H         -22.5410   63.6503  -27.4266 H       1  UNL1        0.0636
     36 H         -25.1682   53.9459  -27.2059 H       1  UNL1        0.0522
     37 H         -23.4194   53.9781  -27.3643 H       1  UNL1        0.0522
     38 H         -25.8135   54.2673  -24.2580 H       1  UNL1        0.0427
     39 H         -26.0714   52.9330  -25.4024 H       1  UNL1        0.0427
     40 H         -24.8990   52.8175  -22.6560 H       1  UNL1        0.0278
     41 H         -25.7311   51.5622  -23.5865 H       1  UNL1        0.0278
     42 H         -22.8638   52.0692  -23.3306 H       1  UNL1        0.0278
     43 H         -23.6422   50.7076  -24.1513 H       1  UNL1        0.0278
     44 H         -22.2594   52.6292  -25.5372 H       1  UNL1        0.0427
     45 H         -23.6771   51.7988  -26.2233 H       1  UNL1        0.0427
     46 H         -22.5400   59.9332  -27.0798 H       1  UNL1        0.1536
     47 H         -26.2050   55.7874  -26.2763 H       1  UNL1        0.1548
@<TRIPOS>BOND
     1     1    24    1
     2     2     3   ar
     3     4     5   ar
     4     4    22   ar
     5     5     7   ar
     6     6     1   ar
     7     7    23    1
     8     8    21   ar
     9    10    11   ar
    10    12    13   ar
    11    12    26    1
    12    14     9   ar
    13    16    15    1
    14    16    25    1
    15    17    25    1
    16    17    18    1
    17    18    19    1
    18    19    20    1
    19    20    25    1
    20    23     9    1
    21    24    15   am
    22     1     2   ar
    23     3     4   ar
    24     5     6   ar
    25     7    21   ar
    26     8    22   ar
    27     9    10   ar
    28    11    12   ar
    29    13    14   ar
    30    15    27    2
    31     2    28    1
    32     3    29    1
    33     6    30    1
    34     8    31    1
    35    10    32    1
    36    11    33    1
    37    13    34    1
    38    14    35    1
    39    16    36    1
    40    16    37    1
    41    17    38    1
    42    17    39    1
    43    18    40    1
    44    18    41    1
    45    19    42    1
    46    19    43    1
    47    20    44    1
    48    20    45    1
    49    23    46    1
    50    24    47    1
@<TRIPOS>MOLECULE
CHEMBL4649816
 39 42 0 0 0
SMALL
GASTEIGER

@<TRIPOS>ATOM
      1 C         -23.4920   57.9649  -29.0067 C.3     1  UNL1        0.0440
      2 C         -23.4674   57.8190  -27.4848 C.3     1  UNL1        0.0460
      3 C         -22.0806   58.2818  -27.0258 C.3     1  UNL1        0.0338
      4 C         -22.1474   58.5410  -29.3656 C.2     1  UNL1        0.2177
      5 C         -20.0908   59.3248  -28.1920 C.3     1  UNL1        0.0398
      6 C         -20.2051   60.8109  -27.9488 C.ar    1  UNL1       -0.0301
      7 C         -20.3716   61.6911  -29.0285 C.ar    1  UNL1       -0.0571
      8 C         -20.5186   63.0620  -28.8116 C.ar    1  UNL1       -0.0615
      9 C         -20.5171   63.5661  -27.5125 C.ar    1  UNL1       -0.0617
     10 C         -20.3625   62.7011  -26.4306 C.ar    1  UNL1       -0.0615
     11 C         -20.2034   61.3310  -26.6468 C.ar    1  UNL1       -0.0571
     12 C         -24.7538   59.8561  -26.8362 C.ar    1  UNL1        0.1480
     13 C         -24.1213   61.9783  -27.5594 C.ar    1  UNL1        0.1205
     14 C         -25.8598   61.8884  -26.1729 C.ar    1  UNL1        0.1825
     15 C         -25.7450   60.5095  -26.1245 C.ar    1  UNL1        0.1253
     16 C         -27.4120   61.2378  -24.8694 C.ar    1  UNL1        0.0963
     17 N         -21.3888   58.6812  -28.2232 N.am    1  UNL1       -0.2953
     18 N         -24.5795   58.4918  -26.8080 N.pl3   1  UNL1       -0.3225
     19 N         -23.9406   60.6414  -27.5666 N.ar    1  UNL1       -0.2187
     20 N         -25.0475   62.6773  -26.8951 N.ar    1  UNL1       -0.2144
     21 N         -26.7496   60.1155  -25.2841 N.ar    1  UNL1       -0.3404
     22 N         -26.8954   62.3272  -25.3902 N.ar    1  UNL1       -0.2164
     23 O         -21.7886   58.8016  -30.5051 O.2     1  UNL1       -0.2755
     24 H         -23.5856   56.9854  -29.4874 H       1  UNL1        0.0377
     25 H         -24.2867   58.6174  -29.3786 H       1  UNL1        0.0377
     26 H         -23.5693   56.7534  -27.2424 H       1  UNL1        0.0518
     27 H         -22.1069   59.1051  -26.3072 H       1  UNL1        0.0483
     28 H         -21.5220   57.4537  -26.5758 H       1  UNL1        0.0483
     29 H         -19.4782   58.8476  -27.4183 H       1  UNL1        0.0514
     30 H         -19.5845   59.1539  -29.1497 H       1  UNL1        0.0514
     31 H         -20.4030   61.3042  -30.0463 H       1  UNL1        0.0621
     32 H         -20.6491   63.7326  -29.6570 H       1  UNL1        0.0618
     33 H         -20.6475   64.6316  -27.3422 H       1  UNL1        0.0618
     34 H         -20.3756   63.0931  -25.4170 H       1  UNL1        0.0618
     35 H         -20.0955   60.6691  -25.7913 H       1  UNL1        0.0621
     36 H         -23.4319   62.5523  -28.1697 H       1  UNL1        0.1048
     37 H         -28.2559   61.1997  -24.1928 H       1  UNL1        0.1027
     38 H         -25.2233   57.9217  -26.2831 H       1  UNL1        0.1479
     39 H         -26.9661   59.1677  -25.0148 H       1  UNL1        0.1669
@<TRIPOS>BOND
     1     1     2    1
     2     1     4    1
     3     2     3    1
     4     2    18    1
     5     3    17    1
     6     5    17    1
     7     5     6    1
     8     7     8   ar
     9     9    10   ar
    10    11     6   ar
    11    13    19   ar
    12    14    20   ar
    13    14    22   ar
    14    15    21   ar
    15    15    12   ar
    16    17     4   am
    17    18    12    1
    18    21    16   ar
    19     4    23    2
    20     6     7   ar
    21     8     9   ar
    22    10    11   ar
    23    12    19   ar
    24    13    20   ar
    25    14    15   ar
    26    16    22   ar
    27     1    24    1
    28     1    25    1
    29     2    26    1
    30     3    27    1
    31     3    28    1
    32     5    29    1
    33     5    30    1
    34     7    31    1
    35     8    32    1
    36     9    33    1
    37    10    34    1
    38    11    35    1
    39    13    36    1
    40    16    37    1
    41    18    38    1
    42    21    39    1
@<TRIPOS>MOLECULE
CHEMBL3393349
 42 45 0 0 0
SMALL
GASTEIGER

@<TRIPOS>ATOM
      1 C         -19.0978   64.2625  -26.2453 C.1     1  UNL1        0.0992
      2 C         -19.4131   63.0842  -26.9993 C.ar    1  UNL1        0.0523
      3 C         -20.6280   62.4230  -26.7892 C.ar    1  UNL1       -0.0366
      4 C         -20.9887   61.3213  -27.5782 C.ar    1  UNL1       -0.0145
      5 C         -20.0947   60.8625  -28.5531 C.ar    1  UNL1       -0.0539
      6 C         -18.8712   61.5085  -28.7519 C.ar    1  UNL1       -0.0600
      7 C         -18.5337   62.6226  -27.9821 C.ar    1  UNL1       -0.0443
      8 C         -22.2864   60.6879  -27.3879 C.ar    1  UNL1        0.0121
      9 C         -23.5852   61.2793  -27.2073 C.ar    1  UNL1        0.0662
     10 C         -24.4509   60.2405  -26.9012 C.ar    1  UNL1        0.1438
     11 C         -26.1495   61.6153  -26.5525 C.ar    1  UNL1        0.1204
     12 C         -24.1421   62.5787  -27.2347 C.ar    1  UNL1        0.1344
     13 C         -23.1184   63.7639  -29.0643 C.3     1  UNL1        0.0263
     14 C         -21.9995   64.7967  -29.3254 C.3     1  UNL1        0.0144
     15 C         -22.6186   65.9911  -27.3004 C.3     1  UNL1        0.0144
     16 C         -23.7648   64.9839  -27.0343 C.3     1  UNL1        0.0263
     17 C         -21.1162   67.0191  -28.9076 C.3     1  UNL1       -0.0126
     18 C         -22.4421   59.3173  -27.2706 C.ar    1  UNL1        0.0120
     19 N         -18.8500   65.2307  -25.6565 N.1     1  UNL1       -0.1909
     20 N         -25.7471   60.3339  -26.5742 N.ar    1  UNL1       -0.2178
     21 N         -25.4372   62.7182  -26.8539 N.ar    1  UNL1       -0.2200
     22 N         -23.4135   63.6912  -27.6264 N.pl3   1  UNL1       -0.3121
     23 N         -22.2630   66.1250  -28.7340 N.3     1  UNL1       -0.3024
     24 N         -23.7593   59.0645  -26.9833 N.ar    1  UNL1       -0.3451
     25 H         -21.3152   62.7924  -26.0286 H       1  UNL1        0.0636
     26 H         -20.3508   60.0100  -29.1785 H       1  UNL1        0.0624
     27 H         -18.1869   61.1503  -29.5175 H       1  UNL1        0.0618
     28 H         -17.5891   63.1331  -28.1612 H       1  UNL1        0.0630
     29 H         -27.1814   61.7848  -26.2600 H       1  UNL1        0.1048
     30 H         -22.7961   62.7967  -29.4667 H       1  UNL1        0.0477
     31 H         -24.0246   64.0563  -29.6115 H       1  UNL1        0.0477
     32 H         -21.0564   64.3983  -28.9377 H       1  UNL1        0.0442
     33 H         -21.8808   64.9020  -30.4107 H       1  UNL1        0.0442
     34 H         -21.7402   65.6610  -26.7304 H       1  UNL1        0.0442
     35 H         -22.9156   66.9695  -26.9052 H       1  UNL1        0.0442
     36 H         -23.8935   64.8877  -25.9490 H       1  UNL1        0.0477
     37 H         -24.7026   65.3632  -27.4589 H       1  UNL1        0.0477
     38 H         -20.6101   67.2585  -27.9650 H       1  UNL1        0.0391
     39 H         -20.3564   66.6058  -29.5820 H       1  UNL1        0.0391
     40 H         -21.4604   67.9591  -29.3498 H       1  UNL1        0.0391
     41 H         -21.7293   58.5051  -27.3290 H       1  UNL1        0.0814
     42 H         -24.1734   58.1591  -26.8155 H       1  UNL1        0.1668
@<TRIPOS>BOND
     1     2     1    1
     2     3     4   ar
     3     4     8    1
     4     5     6   ar
     5     7     2   ar
     6     8     9   ar
     7     9    10   ar
     8    10    24   ar
     9    11    20   ar
    10    12    21   ar
    11    12    22    1
    12    13    22    1
    13    13    14    1
    14    14    23    1
    15    15    23    1
    16    15    16    1
    17    16    22    1
    18    17    23    1
    19    24    18   ar
    20     2     3   ar
    21     4     5   ar
    22     6     7   ar
    23    10    20   ar
    24    11    21   ar
    25    12     9   ar
    26    18     8   ar
    27     1    19    3
    28     3    25    1
    29     5    26    1
    30     6    27    1
    31     7    28    1
    32    11    29    1
    33    13    30    1
    34    13    31    1
    35    14    32    1
    36    14    33    1
    37    15    34    1
    38    15    35    1
    39    16    36    1
    40    16    37    1
    41    17    38    1
    42    17    39    1
    43    17    40    1
    44    18    41    1
    45    24    42    1
@<TRIPOS>MOLECULE
CHEMBL3715062
 44 46 0 0 0
SMALL
GASTEIGER

@<TRIPOS>ATOM
      1 N         -25.2448   60.3047  -26.6932 N.ar    1  UNL1       -0.2200
      2 N         -25.0935   62.7004  -26.9535 N.ar    1  UNL1       -0.2178
      3 N         -23.4518   58.8038  -27.0372 N.pl3   1  UNL1       -0.3146
      4 N         -22.8804   63.4605  -27.4398 N.ar    1  UNL1       -0.3389
      5 N         -18.2058   59.1778  -27.7858 N.am    1  UNL1       -0.3253
      6 C         -25.7434   61.5548  -26.7022 C.ar    1  UNL1        0.1204
      7 C         -23.7886   62.4789  -27.1624 C.ar    1  UNL1        0.1442
      8 C         -23.1293   61.2594  -27.1511 C.ar    1  UNL1        0.0663
      9 C         -23.9257   60.1065  -26.9664 C.ar    1  UNL1        0.1343
     10 C         -24.0335   57.8246  -26.1217 C.3     1  UNL1        0.0133
     11 C         -23.4773   58.0544  -24.7109 C.3     1  UNL1       -0.0400
     12 C         -23.9175   56.9750  -23.7377 C.3     1  UNL1       -0.0639
     13 C         -22.7427   58.3437  -28.2271 C.3     1  UNL1        0.0133
     14 C         -23.6251   58.2493  -29.4694 C.3     1  UNL1       -0.0400
     15 C         -22.7725   57.9288  -30.6935 C.3     1  UNL1       -0.0639
     16 C         -21.7355   61.5574  -27.3152 C.ar    1  UNL1        0.0130
     17 C         -21.6207   62.9250  -27.5718 C.ar    1  UNL1        0.0488
     18 C         -20.4010   63.5385  -27.8768 C.ar    1  UNL1       -0.0370
     19 C         -19.2639   62.7225  -27.9379 C.ar    1  UNL1       -0.0477
     20 C         -19.3292   61.3561  -27.6468 C.ar    1  UNL1        0.0372
     21 C         -20.5527   60.7870  -27.2735 C.ar    1  UNL1       -0.0397
     22 C         -18.0874   60.5411  -27.7685 C.2     1  UNL1        0.2416
     23 O         -16.9858   61.0643  -27.8909 O.2     1  UNL1       -0.2704
     24 H         -23.1203   64.4363  -27.5251 H       1  UNL1        0.1673
     25 H         -17.3518   58.6457  -27.8919 H       1  UNL1        0.1453
     26 H         -19.0755   58.6701  -27.7543 H       1  UNL1        0.1453
     27 H         -26.8039   61.6435  -26.4866 H       1  UNL1        0.1048
     28 H         -25.1299   57.8623  -26.1231 H       1  UNL1        0.0464
     29 H         -23.7690   56.8089  -26.4412 H       1  UNL1        0.0464
     30 H         -22.3808   58.0810  -24.7438 H       1  UNL1        0.0278
     31 H         -23.8031   59.0301  -24.3311 H       1  UNL1        0.0278
     32 H         -23.5482   57.2024  -22.7324 H       1  UNL1        0.0230
     33 H         -25.0085   56.9058  -23.6922 H       1  UNL1        0.0230
     34 H         -23.5192   55.9986  -24.0308 H       1  UNL1        0.0230
     35 H         -21.8994   58.9904  -28.4637 H       1  UNL1        0.0464
     36 H         -22.2991   57.3597  -28.0271 H       1  UNL1        0.0464
     37 H         -24.3832   57.4715  -29.3297 H       1  UNL1        0.0278
     38 H         -24.1559   59.1914  -29.6487 H       1  UNL1        0.0278
     39 H         -22.0428   57.1404  -30.4796 H       1  UNL1        0.0230
     40 H         -23.3995   57.5976  -31.5260 H       1  UNL1        0.0230
     41 H         -22.2196   58.8171  -31.0198 H       1  UNL1        0.0230
     42 H         -20.3318   64.6023  -28.0820 H       1  UNL1        0.0638
     43 H         -18.3092   63.1692  -28.2132 H       1  UNL1        0.0626
     44 H         -20.6196   59.7547  -26.9546 H       1  UNL1        0.0632
@<TRIPOS>BOND
     1     4     7   ar
     2     6     2   ar
     3     7     8   ar
     4     8    16   ar
     5     9     3    1
     6     9     1   ar
     7    10     3    1
     8    10    11    1
     9    11    12    1
    10    13     3    1
    11    13    14    1
    12    14    15    1
    13    17     4   ar
    14    17    18   ar
    15    19    20   ar
    16    20    22    1
    17    21    16   ar
    18    22     5   am
    19     6     1   ar
    20     7     2   ar
    21     8     9   ar
    22    16    17   ar
    23    18    19   ar
    24    20    21   ar
    25    22    23    2
    26     4    24    1
    27     5    25    1
    28     5    26    1
    29     6    27    1
    30    10    28    1
    31    10    29    1
    32    11    30    1
    33    11    31    1
    34    12    32    1
    35    12    33    1
    36    12    34    1
    37    13    35    1
    38    13    36    1
    39    14    37    1
    40    14    38    1
    41    15    39    1
    42    15    40    1
    43    15    41    1
    44    18    42    1
    45    19    43    1
    46    21    44    1
@<TRIPOS>MOLECULE
CHEMBL3717493
 41 44 0 0 0
SMALL
GASTEIGER

@<TRIPOS>ATOM
      1 C         -24.0308   56.1709  -28.0569 C.3     1  UNL1       -0.0502
      2 C         -24.8389   56.7444  -26.8949 C.3     1  UNL1       -0.0371
      3 C         -24.0404   57.8016  -26.1354 C.3     1  UNL1        0.0135
      4 C         -22.7654   58.3412  -28.2178 C.3     1  UNL1        0.0135
      5 C         -23.5700   57.2921  -28.9829 C.3     1  UNL1       -0.0371
      6 C         -23.9774   60.1001  -26.9837 C.ar    1  UNL1        0.1362
      7 C         -25.7961   61.5465  -26.6540 C.ar    1  UNL1        0.2161
      8 C         -23.8362   62.4666  -27.1435 C.ar    1  UNL1        0.1461
      9 C         -23.1806   61.2487  -27.1883 C.ar    1  UNL1        0.0664
     10 C         -21.7929   61.5489  -27.4067 C.ar    1  UNL1        0.0130
     11 C         -21.6760   62.9312  -27.5707 C.ar    1  UNL1        0.0488
     12 C         -20.4569   63.5637  -27.8430 C.ar    1  UNL1       -0.0370
     13 C         -19.3122   62.7612  -27.9582 C.ar    1  UNL1       -0.0477
     14 C         -19.3786   61.3774  -27.7751 C.ar    1  UNL1        0.0372
     15 C         -20.6126   60.7792  -27.4735 C.ar    1  UNL1       -0.0397
     16 C         -18.2045   60.4656  -27.9064 C.2     1  UNL1        0.2416
     17 N         -23.5018   58.8038  -27.0463 N.pl3   1  UNL1       -0.3145
     18 N         -25.2898   60.3047  -26.6801 N.ar    1  UNL1       -0.1990
     19 N         -25.1330   62.6808  -26.8948 N.ar    1  UNL1       -0.1967
     20 N         -22.9339   63.4588  -27.3990 N.ar    1  UNL1       -0.3389
     21 N         -16.9727   61.0039  -28.1449 N.am    1  UNL1       -0.3253
     22 N         -27.1239   61.6621  -26.3539 N.pl3   1  UNL1       -0.3274
     23 O         -18.3256   59.2480  -27.8153 O.2     1  UNL1       -0.2704
     24 H         -23.1581   55.6298  -27.6700 H       1  UNL1        0.0266
     25 H         -24.6363   55.4495  -28.6158 H       1  UNL1        0.0266
     26 H         -25.7649   57.1867  -27.2818 H       1  UNL1        0.0280
     27 H         -25.1256   55.9374  -26.2115 H       1  UNL1        0.0280
     28 H         -24.6595   58.2389  -25.3426 H       1  UNL1        0.0464
     29 H         -23.1977   57.3176  -25.6260 H       1  UNL1        0.0464
     30 H         -22.5190   59.1540  -28.9099 H       1  UNL1        0.0464
     31 H         -21.8218   57.8914  -27.8880 H       1  UNL1        0.0464
     32 H         -24.4448   57.7636  -29.4473 H       1  UNL1        0.0280
     33 H         -22.9577   56.8780  -29.7921 H       1  UNL1        0.0280
     34 H         -20.3940   64.6403  -27.9712 H       1  UNL1        0.0638
     35 H         -18.3761   63.2560  -28.1928 H       1  UNL1        0.0626
     36 H         -20.6565   59.7104  -27.2902 H       1  UNL1        0.0632
     37 H         -23.1755   64.4373  -27.4321 H       1  UNL1        0.1673
     38 H         -16.2065   60.3490  -28.2364 H       1  UNL1        0.1453
     39 H         -16.7684   61.9859  -28.2263 H       1  UNL1        0.1453
     40 H         -27.5270   62.5809  -26.3312 H       1  UNL1        0.1452
     41 H         -27.6348   60.8154  -26.1790 H       1  UNL1        0.1452
@<TRIPOS>BOND
     1     1     2    1
     2     2     3    1
     3     3    17    1
     4     4    17    1
     5     4     5    1
     6     5     1    1
     7     7    18   ar
     8     7    22    1
     9     8    19   ar
    10     9    10   ar
    11     9     6   ar
    12    11    20   ar
    13    11    12   ar
    14    13    14   ar
    15    14    16    1
    16    15    10   ar
    17    16    21   am
    18    17     6    1
    19    20     8   ar
    20     6    18   ar
    21     7    19   ar
    22     8     9   ar
    23    10    11   ar
    24    12    13   ar
    25    14    15   ar
    26    16    23    2
    27     1    24    1
    28     1    25    1
    29     2    26    1
    30     2    27    1
    31     3    28    1
    32     3    29    1
    33     4    30    1
    34     4    31    1
    35     5    32    1
    36     5    33    1
    37    12    34    1
    38    13    35    1
    39    15    36    1
    40    20    37    1
    41    21    38    1
    42    21    39    1
    43    22    40    1
    44    22    41    1
@<TRIPOS>MOLECULE
CHEMBL3716812
 42 45 0 0 0
SMALL
GASTEIGER

@<TRIPOS>ATOM
      1 N         -25.2790   60.2888  -26.8329 N.ar    1  UNL1       -0.2169
      2 N         -25.1011   62.6916  -26.8698 N.ar    1  UNL1       -0.2147
      3 N         -23.4290   58.8161  -27.0363 N.pl3   1  UNL1       -0.3146
      4 N         -22.8785   63.4723  -27.2658 N.ar    1  UNL1       -0.3389
      5 N         -17.0183   60.9861  -28.5218 N.am    1  UNL1       -0.3253
      6 C         -25.7892   61.5392  -26.7730 C.ar    1  UNL1        0.1304
      7 C         -23.8003   62.4779  -27.1035 C.ar    1  UNL1        0.1445
      8 C         -23.1558   61.2585  -27.2187 C.ar    1  UNL1        0.0663
      9 C         -23.9455   60.1049  -27.0320 C.ar    1  UNL1        0.1347
     10 C         -22.5314   58.4815  -25.9301 C.3     1  UNL1        0.0135
     11 C         -22.1443   57.0086  -26.0023 C.3     1  UNL1       -0.0371
     12 C         -23.3844   56.1325  -25.8506 C.3     1  UNL1       -0.0502
     13 C         -24.5966   56.6796  -26.6123 C.3     1  UNL1       -0.0371
     14 C         -24.2336   57.7538  -27.6358 C.3     1  UNL1        0.0135
     15 C         -21.7890   61.5514  -27.5402 C.ar    1  UNL1        0.0130
     16 C         -21.6373   62.9396  -27.5254 C.ar    1  UNL1        0.0488
     17 C         -20.4091   63.5700  -27.7540 C.ar    1  UNL1       -0.0370
     18 C         -19.2918   62.7576  -27.9988 C.ar    1  UNL1       -0.0477
     19 C         -19.4047   61.3645  -28.0473 C.ar    1  UNL1        0.0372
     20 C         -20.6585   60.7651  -27.8467 C.ar    1  UNL1       -0.0397
     21 C         -18.2481   60.4485  -28.2710 C.2     1  UNL1        0.2416
     22 C         -27.2632   61.6543  -26.5275 C.3     1  UNL1       -0.0045
     23 O         -18.3761   59.2291  -28.2220 O.2     1  UNL1       -0.2704
     24 H         -23.1023   64.4539  -27.2119 H       1  UNL1        0.1673
     25 H         -16.2599   60.3292  -28.6541 H       1  UNL1        0.1453
     26 H         -16.8120   61.9684  -28.5938 H       1  UNL1        0.1453
     27 H         -21.6197   59.0827  -25.9525 H       1  UNL1        0.0464
     28 H         -23.0219   58.6824  -24.9687 H       1  UNL1        0.0464
     29 H         -21.6606   56.7971  -26.9651 H       1  UNL1        0.0280
     30 H         -21.4163   56.7640  -25.2212 H       1  UNL1        0.0280
     31 H         -23.1529   55.1138  -26.1819 H       1  UNL1        0.0266
     32 H         -23.6463   56.0562  -24.7875 H       1  UNL1        0.0266
     33 H         -25.1136   55.8525  -27.1132 H       1  UNL1        0.0280
     34 H         -25.3094   57.0980  -25.8909 H       1  UNL1        0.0280
     35 H         -23.6446   57.2987  -28.4420 H       1  UNL1        0.0464
     36 H         -25.1466   58.1306  -28.1130 H       1  UNL1        0.0464
     37 H         -20.3143   64.6516  -27.7308 H       1  UNL1        0.0638
     38 H         -18.3384   63.2526  -28.1471 H       1  UNL1        0.0626
     39 H         -20.7599   59.6844  -27.9169 H       1  UNL1        0.0632
     40 H         -27.4587   61.6715  -25.4514 H       1  UNL1        0.0308
     41 H         -27.6570   62.5740  -26.9717 H       1  UNL1        0.0308
     42 H         -27.7952   60.8072  -26.9710 H       1  UNL1        0.0308
@<TRIPOS>BOND
     1     4     7   ar
     2     6     2   ar
     3     7     8   ar
     4     8    15   ar
     5     9     3    1
     6     9     1   ar
     7    10     3    1
     8    10    11    1
     9    11    12    1
    10    12    13    1
    11    13    14    1
    12    14     3    1
    13    16     4   ar
    14    16    17   ar
    15    18    19   ar
    16    19    21    1
    17    20    15   ar
    18    21     5   am
    19    22     6    1
    20     6     1   ar
    21     7     2   ar
    22     8     9   ar
    23    15    16   ar
    24    17    18   ar
    25    19    20   ar
    26    21    23    2
    27     4    24    1
    28     5    25    1
    29     5    26    1
    30    10    27    1
    31    10    28    1
    32    11    29    1
    33    11    30    1
    34    12    31    1
    35    12    32    1
    36    13    33    1
    37    13    34    1
    38    14    35    1
    39    14    36    1
    40    17    37    1
    41    18    38    1
    42    20    39    1
    43    22    40    1
    44    22    41    1
    45    22    42    1
@<TRIPOS>MOLECULE
CHEMBL258838
 45 49 0 0 0
SMALL
GASTEIGER

@<TRIPOS>ATOM
      1 C         -21.5173   64.1937  -29.2445 C.3     1  UNL1        0.0159
      2 C         -21.1931   65.6306  -28.7694 C.3     1  UNL1       -0.0290
      3 C         -21.4549   66.6963  -29.8388 C.3     1  UNL1       -0.0005
      4 C         -22.1457   65.1231  -31.5445 C.3     1  UNL1       -0.0005
      5 C         -21.3319   64.0810  -30.7664 C.3     1  UNL1       -0.0290
      6 C         -22.9461   67.3942  -31.5995 C.3     1  UNL1       -0.0128
      7 C         -22.9609   63.7639  -28.7952 C.3     1  UNL1        0.0284
      8 C         -23.9760   61.9169  -27.5012 C.ar    1  UNL1        0.1380
      9 C         -26.0751   62.1144  -26.4882 C.ar    1  UNL1        0.1204
     10 C         -25.3171   60.0635  -26.8138 C.ar    1  UNL1        0.1432
     11 C         -24.1547   60.5182  -27.4205 C.ar    1  UNL1        0.0589
     12 C         -23.4513   59.3519  -27.8491 C.ar    1  UNL1       -0.0318
     13 C         -24.1711   58.2454  -27.4493 C.ar    1  UNL1        0.0042
     14 C         -21.4690   62.2798  -27.8169 C.ar    1  UNL1        0.0389
     15 C         -20.6643   63.1744  -28.5241 C.ar    1  UNL1       -0.0183
     16 C         -19.2755   63.0829  -28.4952 C.ar    1  UNL1       -0.0562
     17 C         -18.6854   62.0943  -27.7104 C.ar    1  UNL1       -0.0614
     18 C         -19.4823   61.2267  -26.9573 C.ar    1  UNL1       -0.0600
     19 C         -20.8763   61.3252  -27.0032 C.ar    1  UNL1       -0.0400
     20 N         -22.5334   66.2872  -30.7359 N.3     1  UNL1       -0.3053
     21 N         -22.8342   62.5266  -28.0079 N.pl3   1  UNL1       -0.2834
     22 N         -25.0048   62.6974  -27.0620 N.ar    1  UNL1       -0.2197
     23 N         -26.3104   60.8053  -26.3075 N.ar    1  UNL1       -0.2178
     24 N         -25.2964   58.6958  -26.8106 N.ar    1  UNL1       -0.3457
     25 H         -21.7657   65.8696  -27.8637 H       1  UNL1        0.0287
     26 H         -20.1404   65.7232  -28.4734 H       1  UNL1        0.0287
     27 H         -21.7117   67.6313  -29.3248 H       1  UNL1        0.0427
     28 H         -20.5337   66.8923  -30.4039 H       1  UNL1        0.0427
     29 H         -23.0555   64.6514  -31.9345 H       1  UNL1        0.0427
     30 H         -21.5515   65.4265  -32.4175 H       1  UNL1        0.0427
     31 H         -21.5912   63.0752  -31.1221 H       1  UNL1        0.0287
     32 H         -20.2702   64.2226  -31.0126 H       1  UNL1        0.0287
     33 H         -23.3251   68.2288  -30.9994 H       1  UNL1        0.0391
     34 H         -22.1206   67.7642  -32.2191 H       1  UNL1        0.0391
     35 H         -23.7625   67.0848  -32.2614 H       1  UNL1        0.0391
     36 H         -23.4421   64.5452  -28.1939 H       1  UNL1        0.0477
     37 H         -23.6080   63.5801  -29.6624 H       1  UNL1        0.0477
     38 H         -26.8415   62.7902  -26.1216 H       1  UNL1        0.1048
     39 H         -22.5192   59.3320  -28.3992 H       1  UNL1        0.0640
     40 H         -23.9845   57.1871  -27.5725 H       1  UNL1        0.0807
     41 H         -18.6565   63.7727  -29.0599 H       1  UNL1        0.0621
     42 H         -17.6028   62.0082  -27.6680 H       1  UNL1        0.0618
     43 H         -19.0169   60.4747  -26.3254 H       1  UNL1        0.0618
     44 H         -21.4734   60.6639  -26.3855 H       1  UNL1        0.0636
     45 H         -26.0282   58.1256  -26.4102 H       1  UNL1        0.1668
@<TRIPOS>BOND
     1     1     2    1
     2     1     7    1
     3     1    15    1
     4     2     3    1
     5     3    20    1
     6     4    20    1
     7     4     5    1
     8     5     1    1
     9     6    20    1
    10     7    21    1
    11     9    22   ar
    12    10    23   ar
    13    11    12   ar
    14    11     8   ar
    15    13    24   ar
    16    15    16   ar
    17    17    18   ar
    18    19    14   ar
    19    21     8    1
    20    21    14    1
    21    24    10   ar
    22     8    22   ar
    23     9    23   ar
    24    10    11   ar
    25    12    13   ar
    26    14    15   ar
    27    16    17   ar
    28    18    19   ar
    29     2    25    1
    30     2    26    1
    31     3    27    1
    32     3    28    1
    33     4    29    1
    34     4    30    1
    35     5    31    1
    36     5    32    1
    37     6    33    1
    38     6    34    1
    39     6    35    1
    40     7    36    1
    41     7    37    1
    42     9    38    1
    43    12    39    1
    44    13    40    1
    45    16    41    1
    46    17    42    1
    47    18    43    1
    48    19    44    1
    49    24    45    1
@<TRIPOS>MOLECULE
CHEMBL4448573
 53 57 0 0 0
SMALL
GASTEIGER

@<TRIPOS>ATOM
      1 C         -22.7977   61.2051  -30.9503 C.3     1  UNL1       -0.0366
      2 C         -21.9801   62.4976  -31.0177 C.3     1  UNL1       -0.0434
      3 C         -22.0087   63.2853  -29.6850 C.3     1  UNL1        0.0000
      4 C         -23.4748   63.4508  -29.1959 C.3     1  UNL1        0.0203
      5 C         -24.2298   61.5155  -30.5271 C.3     1  UNL1        0.0136
      6 C         -24.8491   61.7144  -28.0988 C.ar    1  UNL1        0.1338
      7 C         -25.6009   62.2297  -25.9256 C.ar    1  UNL1        0.1204
      8 C         -25.9124   60.1592  -26.6154 C.ar    1  UNL1        0.1432
      9 C         -25.3175   60.3944  -27.8520 C.ar    1  UNL1        0.0585
     10 C         -25.3281   59.1252  -28.5151 C.ar    1  UNL1       -0.0318
     11 C         -25.9638   58.2070  -27.7052 C.ar    1  UNL1        0.0042
     12 C         -21.0000   62.7306  -28.6767 C.ar    1  UNL1       -0.0410
     13 C         -19.6269   62.7818  -28.9989 C.ar    1  UNL1       -0.0370
     14 C         -18.6472   62.2891  -28.1323 C.ar    1  UNL1        0.0339
     15 C         -19.0439   61.7541  -26.9033 C.ar    1  UNL1       -0.0405
     16 C         -20.3913   61.7139  -26.5538 C.ar    1  UNL1       -0.0597
     17 C         -21.3580   62.1995  -27.4337 C.ar    1  UNL1       -0.0581
     18 C         -16.6356   62.7424  -29.5619 C.2     1  UNL1        0.2483
     19 C         -15.1360   62.6348  -29.6082 C.ar    1  UNL1        0.0370
     20 C         -14.3481   62.1133  -28.5710 C.ar    1  UNL1       -0.0496
     21 C         -12.9554   62.0534  -28.7000 C.ar    1  UNL1       -0.0610
     22 C         -12.3351   62.5113  -29.8601 C.ar    1  UNL1       -0.0617
     23 C         -13.1032   63.0307  -30.8972 C.ar    1  UNL1       -0.0610
     24 C         -14.4928   63.0913  -30.7716 C.ar    1  UNL1       -0.0496
     25 N         -24.1981   62.1683  -29.2304 N.pl3   1  UNL1       -0.3140
     26 N         -25.0172   62.6066  -27.0757 N.ar    1  UNL1       -0.2200
     27 N         -26.0857   61.0257  -25.6097 N.ar    1  UNL1       -0.2178
     28 N         -26.3099   58.8528  -26.5520 N.ar    1  UNL1       -0.3457
     29 N         -17.2623   62.2918  -28.4125 N.am    1  UNL1       -0.2815
     30 O         -17.2047   63.2173  -30.5411 O.2     1  UNL1       -0.2699
     31 H         -22.7974   60.7206  -31.9329 H       1  UNL1        0.0281
     32 H         -22.3354   60.5066  -30.2422 H       1  UNL1        0.0281
     33 H         -20.9587   62.2645  -31.3374 H       1  UNL1        0.0272
     34 H         -22.4066   63.1344  -31.8045 H       1  UNL1        0.0272
     35 H         -21.6538   64.3045  -29.8995 H       1  UNL1        0.0364
     36 H         -23.4788   63.9440  -28.2175 H       1  UNL1        0.0470
     37 H         -23.9935   64.1410  -29.8755 H       1  UNL1        0.0470
     38 H         -24.8434   60.6181  -30.5646 H       1  UNL1        0.0464
     39 H         -24.6860   62.1968  -31.2576 H       1  UNL1        0.0464
     40 H         -25.6795   62.9960  -25.1613 H       1  UNL1        0.1048
     41 H         -24.9141   58.8827  -29.4827 H       1  UNL1        0.0640
     42 H         -26.1825   57.1569  -27.8461 H       1  UNL1        0.0807
     43 H         -19.3456   63.2227  -29.9502 H       1  UNL1        0.0639
     44 H         -18.3156   61.3628  -26.1993 H       1  UNL1        0.0636
     45 H         -20.6965   61.3028  -25.5950 H       1  UNL1        0.0618
     46 H         -22.3929   62.1516  -27.1154 H       1  UNL1        0.0620
     47 H         -14.7703   61.7427  -27.6450 H       1  UNL1        0.0625
     48 H         -12.3527   61.6478  -27.8905 H       1  UNL1        0.0618
     49 H         -11.2532   62.4637  -29.9556 H       1  UNL1        0.0618
     50 H         -12.6259   63.3901  -31.8053 H       1  UNL1        0.0618
     51 H         -15.0764   63.5016  -31.5948 H       1  UNL1        0.0625
     52 H         -26.7717   58.4487  -25.7505 H       1  UNL1        0.1668
     53 H         -16.6926   61.9075  -27.6775 H       1  UNL1        0.1551
@<TRIPOS>BOND
     1     1     2    1
     2     2     3    1
     3     3     4    1
     4     3    12    1
     5     4    25    1
     6     5    25    1
     7     5     1    1
     8     7    26   ar
     9     8    27   ar
    10     9    10   ar
    11     9     6   ar
    12    11    28   ar
    13    13    14   ar
    14    14    29    1
    15    15    16   ar
    16    17    12   ar
    17    18    19    1
    18    20    21   ar
    19    22    23   ar
    20    24    19   ar
    21    25     6    1
    22    28     8   ar
    23    29    18   am
    24     6    26   ar
    25     7    27   ar
    26     8     9   ar
    27    10    11   ar
    28    12    13   ar
    29    14    15   ar
    30    16    17   ar
    31    18    30    2
    32    19    20   ar
    33    21    22   ar
    34    23    24   ar
    35     1    31    1
    36     1    32    1
    37     2    33    1
    38     2    34    1
    39     3    35    1
    40     4    36    1
    41     4    37    1
    42     5    38    1
    43     5    39    1
    44     7    40    1
    45    10    41    1
    46    11    42    1
    47    13    43    1
    48    15    44    1
    49    16    45    1
    50    17    46    1
    51    20    47    1
    52    21    48    1
    53    22    49    1
    54    23    50    1
    55    24    51    1
    56    28    52    1
    57    29    53    1
@<TRIPOS>MOLECULE
CHEMBL4545883
 56 59 0 0 0
SMALL
GASTEIGER

@<TRIPOS>ATOM
      1 C         -24.3317   57.4606  -28.2012 C.3     1  UNL1       -0.0428
      2 C         -24.8146   57.5817  -26.7454 C.3     1  UNL1        0.0405
      3 C         -25.6730   56.3288  -26.4489 C.3     1  UNL1       -0.0428
      4 C         -25.3738   60.0797  -26.7338 C.ar    1  UNL1        0.1309
      5 C         -26.3466   61.0914  -26.6061 C.ar    1  UNL1        0.0431
      6 C         -27.7262   60.8878  -26.3490 C.ar    1  UNL1       -0.0311
      7 C         -28.5607   61.9848  -26.2197 C.ar    1  UNL1        0.0284
      8 C         -26.8085   63.4142  -26.5929 C.ar    1  UNL1        0.0536
      9 C         -25.8752   62.4001  -26.7411 C.ar    1  UNL1        0.0947
     10 C         -23.7473   61.6768  -27.1303 C.ar    1  UNL1        0.1625
     11 C         -22.3314   61.9953  -27.3998 C.ar    1  UNL1        0.0220
     12 C         -21.3667   60.9878  -27.5274 C.ar    1  UNL1       -0.0329
     13 C         -20.0446   61.3222  -27.7732 C.ar    1  UNL1        0.0282
     14 C         -20.5367   63.5589  -27.7824 C.ar    1  UNL1        0.0282
     15 C         -21.8804   63.3164  -27.5362 C.ar    1  UNL1       -0.0329
     16 C         -23.6250   57.6685  -25.7182 C.3     1  UNL1        0.0199
     17 C         -22.9801   55.6329  -24.5271 C.3     1  UNL1       -0.0008
     18 C         -22.1965   54.3187  -24.6322 C.3     1  UNL1       -0.0401
     19 C         -20.7871   54.5036  -25.1921 C.3     1  UNL1       -0.0505
     20 C         -20.3194   55.9368  -24.9876 C.3     1  UNL1       -0.0375
     21 C         -21.2765   56.9418  -25.6691 C.3     1  UNL1        0.0077
     22 C         -20.8135   57.1776  -27.1116 C.3     1  UNL1       -0.0495
     23 N         -25.7325   58.7402  -26.6026 N.pl3   1  UNL1       -0.3222
     24 N         -28.1310   63.2515  -26.3318 N.ar    1  UNL1       -0.2611
     25 N         -24.5966   62.7021  -26.9941 N.ar    1  UNL1       -0.2256
     26 N         -24.0959   60.3835  -27.0145 N.ar    1  UNL1       -0.2122
     27 N         -19.6079   62.5893  -27.9021 N.ar    1  UNL1       -0.2632
     28 N         -22.6983   56.5043  -25.6752 N.3     1  UNL1       -0.2976
     29 H         -23.6096   56.6449  -28.3157 H       1  UNL1        0.0251
     30 H         -25.1695   57.2455  -28.8757 H       1  UNL1        0.0251
     31 H         -23.8572   58.3752  -28.5664 H       1  UNL1        0.0251
     32 H         -26.0243   56.3283  -25.4104 H       1  UNL1        0.0251
     33 H         -26.5660   56.3013  -27.0857 H       1  UNL1        0.0251
     34 H         -25.1178   55.4018  -26.6264 H       1  UNL1        0.0251
     35 H         -28.1499   59.8949  -26.2575 H       1  UNL1        0.0640
     36 H         -29.6217   61.8676  -26.0178 H       1  UNL1        0.0830
     37 H         -26.4924   64.4507  -26.6852 H       1  UNL1        0.0851
     38 H         -21.6447   59.9465  -27.4362 H       1  UNL1        0.0640
     39 H         -19.2836   60.5537  -27.8752 H       1  UNL1        0.0830
     40 H         -20.1633   64.5730  -27.8926 H       1  UNL1        0.0830
     41 H         -22.5650   64.1550  -27.4522 H       1  UNL1        0.0640
     42 H         -23.0455   58.5641  -25.9530 H       1  UNL1        0.0447
     43 H         -24.0306   57.8659  -24.7153 H       1  UNL1        0.0447
     44 H         -22.7323   56.1436  -23.5867 H       1  UNL1        0.0427
     45 H         -24.0432   55.3787  -24.4658 H       1  UNL1        0.0427
     46 H         -22.1343   53.8713  -23.6326 H       1  UNL1        0.0278
     47 H         -22.7379   53.6022  -25.2615 H       1  UNL1        0.0278
     48 H         -20.0957   53.7992  -24.7171 H       1  UNL1        0.0266
     49 H         -20.7871   54.2657  -26.2630 H       1  UNL1        0.0266
     50 H         -20.2791   56.1454  -23.9104 H       1  UNL1        0.0280
     51 H         -19.2967   56.0550  -25.3647 H       1  UNL1        0.0280
     52 H         -21.1733   57.8846  -25.1137 H       1  UNL1        0.0460
     53 H         -19.8343   57.6696  -27.1196 H       1  UNL1        0.0245
     54 H         -20.7264   56.2399  -27.6695 H       1  UNL1        0.0245
     55 H         -21.5017   57.8203  -27.6637 H       1  UNL1        0.0245
     56 H         -26.5131   58.5738  -25.9818 H       1  UNL1        0.1480
@<TRIPOS>BOND
     1     1     2    1
     2     2     3    1
     3     2    23    1
     4     2    16    1
     5     4     5   ar
     6     6     7   ar
     7     8    24   ar
     8     9    25   ar
     9     9     5   ar
    10    10    26   ar
    11    10    11    1
    12    12    13   ar
    13    14    27   ar
    14    15    11   ar
    15    16    28    1
    16    17    28    1
    17    17    18    1
    18    18    19    1
    19    19    20    1
    20    20    21    1
    21    21    22    1
    22    21    28    1
    23    23     4    1
    24     4    26   ar
    25     5     6   ar
    26     7    24   ar
    27     8     9   ar
    28    10    25   ar
    29    11    12   ar
    30    13    27   ar
    31    14    15   ar
    32     1    29    1
    33     1    30    1
    34     1    31    1
    35     3    32    1
    36     3    33    1
    37     3    34    1
    38     6    35    1
    39     7    36    1
    40     8    37    1
    41    12    38    1
    42    13    39    1
    43    14    40    1
    44    15    41    1
    45    16    42    1
    46    16    43    1
    47    17    44    1
    48    17    45    1
    49    18    46    1
    50    18    47    1
    51    19    48    1
    52    19    49    1
    53    20    50    1
    54    20    51    1
    55    21    52    1
    56    22    53    1
    57    22    54    1
    58    22    55    1
    59    23    56    1
@<TRIPOS>MOLECULE
CHEMBL3715766
 44 47 0 0 0
SMALL
GASTEIGER

@<TRIPOS>ATOM
      1 C         -27.2146   61.6807  -26.3418 C.3     1  UNL1       -0.0045
      2 C         -25.7593   61.5525  -26.6762 C.ar    1  UNL1        0.1304
      3 C         -23.7886   62.4736  -27.1438 C.ar    1  UNL1        0.1445
      4 C         -23.1351   61.2543  -27.1501 C.ar    1  UNL1        0.0663
      5 C         -21.7470   61.5382  -27.3625 C.ar    1  UNL1        0.0130
      6 C         -21.6193   62.9142  -27.5649 C.ar    1  UNL1        0.0488
      7 C         -20.3930   63.5272  -27.8513 C.ar    1  UNL1       -0.0370
      8 C         -19.2584   62.7074  -27.9377 C.ar    1  UNL1       -0.0458
      9 C         -19.3433   61.3293  -27.7130 C.ar    1  UNL1        0.0597
     10 C         -20.5800   60.7485  -27.3988 C.ar    1  UNL1       -0.0379
     11 C         -18.1744   60.4142  -27.8118 C.2     1  UNL1        0.3389
     12 C         -15.9030   60.2540  -28.3051 C.3     1  UNL1        0.0820
     13 C         -23.9259   60.1075  -26.9340 C.ar    1  UNL1        0.1347
     14 C         -22.9883   58.3578  -28.3122 C.3     1  UNL1        0.0135
     15 C         -22.5640   56.8954  -28.2407 C.3     1  UNL1       -0.0371
     16 C         -23.7517   56.0251  -27.8403 C.3     1  UNL1       -0.0502
     17 C         -24.6191   56.6657  -26.7508 C.3     1  UNL1       -0.0371
     18 C         -23.9358   57.8322  -26.0398 C.3     1  UNL1        0.0135
     19 N         -25.0900   62.6953  -26.9200 N.ar    1  UNL1       -0.2147
     20 N         -22.8759   63.4545  -27.4129 N.ar    1  UNL1       -0.3389
     21 N         -25.2445   60.3020  -26.6651 N.ar    1  UNL1       -0.2169
     22 N         -23.4223   58.8147  -26.9918 N.pl3   1  UNL1       -0.3146
     23 O         -18.2465   59.2098  -27.6164 O.2     1  UNL1       -0.2450
     24 O         -17.0531   61.0901  -28.1636 O.3     1  UNL1       -0.4645
     25 H         -27.3421   61.6932  -25.2554 H       1  UNL1        0.0308
     26 H         -27.6288   62.6060  -26.7544 H       1  UNL1        0.0308
     27 H         -27.7791   60.8393  -26.7550 H       1  UNL1        0.0308
     28 H         -20.3169   64.5987  -28.0116 H       1  UNL1        0.0638
     29 H         -18.3031   63.1688  -28.1792 H       1  UNL1        0.0626
     30 H         -20.6447   59.6829  -27.1914 H       1  UNL1        0.0632
     31 H         -15.5624   59.9187  -27.3208 H       1  UNL1        0.0661
     32 H         -16.1130   59.3963  -28.9533 H       1  UNL1        0.0661
     33 H         -15.1086   60.8446  -28.7688 H       1  UNL1        0.0661
     34 H         -23.8032   58.4667  -29.0396 H       1  UNL1        0.0464
     35 H         -22.1476   58.9462  -28.6875 H       1  UNL1        0.0464
     36 H         -22.1655   56.5630  -29.2054 H       1  UNL1        0.0280
     37 H         -21.7571   56.7767  -27.5056 H       1  UNL1        0.0280
     38 H         -24.3793   55.8413  -28.7216 H       1  UNL1        0.0266
     39 H         -23.3897   55.0439  -27.5130 H       1  UNL1        0.0266
     40 H         -25.5528   57.0205  -27.2045 H       1  UNL1        0.0280
     41 H         -24.9027   55.9016  -26.0174 H       1  UNL1        0.0280
     42 H         -24.6244   58.2709  -25.3073 H       1  UNL1        0.0464
     43 H         -23.0870   57.4514  -25.4579 H       1  UNL1        0.0464
     44 H         -23.1108   64.4332  -27.4751 H       1  UNL1        0.1673
@<TRIPOS>BOND
     1     1     2    1
     2     2    21   ar
     3     3    19   ar
     4     4     5   ar
     5     4    13   ar
     6     6    20   ar
     7     6     7   ar
     8     8     9   ar
     9     9    11    1
    10    10     5   ar
    11    11    24    1
    12    12    24    1
    13    13    22    1
    14    14    22    1
    15    14    15    1
    16    15    16    1
    17    16    17    1
    18    17    18    1
    19    18    22    1
    20    20     3   ar
    21     2    19   ar
    22     3     4   ar
    23     5     6   ar
    24     7     8   ar
    25     9    10   ar
    26    11    23    2
    27    13    21   ar
    28     1    25    1
    29     1    26    1
    30     1    27    1
    31     7    28    1
    32     8    29    1
    33    10    30    1
    34    12    31    1
    35    12    32    1
    36    12    33    1
    37    14    34    1
    38    14    35    1
    39    15    36    1
    40    15    37    1
    41    16    38    1
    42    16    39    1
    43    17    40    1
    44    17    41    1
    45    18    42    1
    46    18    43    1
    47    20    44    1
@<TRIPOS>MOLECULE
CHEMBL3669559
 57 62 0 0 0
SMALL
GASTEIGER

@<TRIPOS>ATOM
      1 O         -22.4056   61.6943  -31.6661 O.2     1  UNL1       -0.2750
      2 C         -22.3602   62.9138  -31.8173 C.2     1  UNL1        0.2221
      3 C         -19.9414   62.9888  -31.4310 C.3     1  UNL1        0.0417
      4 C         -19.8829   63.3926  -29.9878 C.ar    1  UNL1       -0.0051
      5 C         -19.5435   64.6380  -29.4876 C.ar    1  UNL1        0.0074
      6 C         -20.1925   63.3935  -27.7259 C.ar    1  UNL1        0.0468
      7 C         -20.5594   62.9422  -26.4519 C.ar    1  UNL1       -0.0378
      8 C         -20.9993   61.6210  -26.3337 C.ar    1  UNL1       -0.0598
      9 C         -21.0696   60.7879  -27.4463 C.ar    1  UNL1       -0.0611
     10 C         -20.7167   61.2605  -28.7143 C.ar    1  UNL1       -0.0523
     11 C         -20.2658   62.5883  -28.8627 C.ar    1  UNL1        0.0043
     12 C         -21.0345   64.6795  -32.9208 C.3     1  UNL1        0.0151
     13 C         -22.2109   65.6361  -32.8649 C.3     1  UNL1       -0.0362
     14 C         -23.5275   64.8639  -32.8770 C.3     1  UNL1       -0.0375
     15 C         -23.6065   63.8286  -31.7319 C.3     1  UNL1        0.0501
     16 C         -23.6038   64.5448  -30.3474 C.3     1  UNL1       -0.0232
     17 C         -24.7403   64.1196  -29.4147 C.3     1  UNL1        0.0145
     18 C         -25.1453   62.0394  -30.7160 C.3     1  UNL1        0.0145
     19 C         -24.9013   62.9987  -31.8908 C.3     1  UNL1       -0.0232
     20 C         -24.8354   61.9693  -28.2402 C.ar    1  UNL1        0.1337
     21 C         -24.7872   62.0772  -25.8874 C.ar    1  UNL1        0.1204
     22 C         -24.6815   60.0673  -26.7827 C.ar    1  UNL1        0.1432
     23 C         -24.5713   58.2763  -28.1183 C.ar    1  UNL1        0.0042
     24 C         -24.6838   59.3937  -28.9189 C.ar    1  UNL1       -0.0318
     25 C         -24.7513   60.5561  -28.0847 C.ar    1  UNL1        0.0585
     26 N         -21.1546   63.5831  -31.9799 N.am    1  UNL1       -0.2966
     27 N         -19.7449   64.6272  -28.1335 N.ar    1  UNL1       -0.3603
     28 N         -24.8810   62.6733  -29.4357 N.pl3   1  UNL1       -0.3145
     29 N         -24.8642   62.6935  -27.0791 N.ar    1  UNL1       -0.2200
     30 N         -24.6949   60.7661  -25.6406 N.ar    1  UNL1       -0.2178
     31 N         -24.5745   58.7048  -26.8218 N.ar    1  UNL1       -0.3457
     32 H         -19.9705   61.8993  -31.5341 H       1  UNL1        0.0514
     33 H         -19.0624   63.3538  -31.9732 H       1  UNL1        0.0514
     34 H         -19.2252   65.5416  -29.9888 H       1  UNL1        0.0810
     35 H         -20.5248   63.5940  -25.5858 H       1  UNL1        0.0638
     36 H         -21.3125   61.2430  -25.3636 H       1  UNL1        0.0618
     37 H         -21.4318   59.7692  -27.3388 H       1  UNL1        0.0618
     38 H         -20.8200   60.6121  -29.5799 H       1  UNL1        0.0624
     39 H         -20.1060   65.2290  -32.7324 H       1  UNL1        0.0465
     40 H         -20.9647   64.2318  -33.9198 H       1  UNL1        0.0465
     41 H         -22.1359   66.2526  -31.9625 H       1  UNL1        0.0281
     42 H         -22.1707   66.3227  -33.7179 H       1  UNL1        0.0281
     43 H         -24.3611   65.5736  -32.8063 H       1  UNL1        0.0276
     44 H         -23.6276   64.3542  -33.8445 H       1  UNL1        0.0276
     45 H         -22.6590   64.3646  -29.8239 H       1  UNL1        0.0290
     46 H         -23.6776   65.6326  -30.4631 H       1  UNL1        0.0290
     47 H         -24.5286   64.5403  -28.4250 H       1  UNL1        0.0464
     48 H         -25.6831   64.5794  -29.7372 H       1  UNL1        0.0464
     49 H         -24.5039   61.1742  -30.8635 H       1  UNL1        0.0464
     50 H         -26.1831   61.6872  -30.7509 H       1  UNL1        0.0464
     51 H         -24.8787   62.4194  -32.8225 H       1  UNL1        0.0290
     52 H         -25.7597   63.6793  -31.9747 H       1  UNL1        0.0290
     53 H         -24.8018   62.7269  -25.0186 H       1  UNL1        0.1048
     54 H         -24.4820   57.2267  -28.3641 H       1  UNL1        0.0807
     55 H         -24.6950   59.3531  -29.9976 H       1  UNL1        0.0640
     56 H         -19.6189   65.4177  -27.5177 H       1  UNL1        0.1653
     57 H         -24.4964   58.1278  -25.9977 H       1  UNL1        0.1668
@<TRIPOS>BOND
     1     2    26   am
     2     3    26    1
     3     3     4    1
     4     5    27   ar
     5     7     8   ar
     6     9    10   ar
     7    11     4   ar
     8    11     6   ar
     9    12    26    1
    10    12    13    1
    11    13    14    1
    12    14    15    1
    13    15    16    1
    14    15     2    1
    15    16    17    1
    16    17    28    1
    17    18    28    1
    18    18    19    1
    19    19    15    1
    20    21    29   ar
    21    22    30   ar
    22    22    31   ar
    23    24    25   ar
    24    25    20   ar
    25    27     6   ar
    26    28    20    1
    27    31    23   ar
    28     2     1    2
    29     4     5   ar
    30     6     7   ar
    31     8     9   ar
    32    10    11   ar
    33    20    29   ar
    34    21    30   ar
    35    23    24   ar
    36    25    22   ar
    37     3    32    1
    38     3    33    1
    39     5    34    1
    40     7    35    1
    41     8    36    1
    42     9    37    1
    43    10    38    1
    44    12    39    1
    45    12    40    1
    46    13    41    1
    47    13    42    1
    48    14    43    1
    49    14    44    1
    50    16    45    1
    51    16    46    1
    52    17    47    1
    53    17    48    1
    54    18    49    1
    55    18    50    1
    56    19    51    1
    57    19    52    1
    58    21    53    1
    59    23    54    1
    60    24    55    1
    61    27    56    1
    62    31    57    1
@<TRIPOS>MOLECULE
CHEMBL3393341
 43 46 0 0 0
SMALL
GASTEIGER

@<TRIPOS>ATOM
      1 C         -23.1286   67.2057  -28.4079 C.3     1  UNL1       -0.0610
      2 C         -22.6417   65.9026  -27.7829 C.3     1  UNL1       -0.0280
      3 C         -21.7806   66.1802  -26.5405 C.3     1  UNL1       -0.0476
      4 C         -21.3252   64.8848  -25.8706 C.3     1  UNL1       -0.0369
      5 C         -22.4867   63.9244  -25.6218 C.3     1  UNL1        0.0135
      6 C         -23.8113   64.9670  -27.4344 C.3     1  UNL1        0.0161
      7 C         -24.0638   62.6158  -26.8680 C.ar    1  UNL1        0.1343
      8 C         -26.1705   61.6357  -26.7007 C.ar    1  UNL1        0.1204
      9 C         -24.4428   60.2637  -26.8698 C.ar    1  UNL1        0.1438
     10 C         -22.4243   59.3369  -27.1703 C.ar    1  UNL1        0.0120
     11 C         -22.2554   60.7093  -27.2366 C.ar    1  UNL1        0.0121
     12 C         -20.9872   61.3303  -27.5917 C.ar    1  UNL1       -0.0145
     13 C         -19.7941   60.9512  -26.9650 C.ar    1  UNL1       -0.0539
     14 C         -18.5913   61.5836  -27.2923 C.ar    1  UNL1       -0.0600
     15 C         -18.5720   62.6026  -28.2458 C.ar    1  UNL1       -0.0443
     16 C         -19.7546   62.9822  -28.8861 C.ar    1  UNL1        0.0523
     17 C         -20.9540   62.3358  -28.5686 C.ar    1  UNL1       -0.0366
     18 C         -19.7479   64.0617  -29.8302 C.1     1  UNL1        0.0992
     19 C         -23.5382   61.3082  -26.9852 C.ar    1  UNL1        0.0662
     20 N         -23.2557   63.7478  -26.8542 N.pl3   1  UNL1       -0.3143
     21 N         -25.4113   62.7469  -26.7648 N.ar    1  UNL1       -0.2200
     22 N         -25.7710   60.3535  -26.7170 N.ar    1  UNL1       -0.2178
     23 N         -23.7528   59.0858  -26.9403 N.ar    1  UNL1       -0.3451
     24 N         -19.7399   64.9490  -30.5773 N.1     1  UNL1       -0.1909
     25 H         -23.6230   67.8447  -27.6695 H       1  UNL1        0.0233
     26 H         -22.2836   67.7638  -28.8262 H       1  UNL1        0.0233
     27 H         -23.8349   67.0125  -29.2217 H       1  UNL1        0.0233
     28 H         -22.0164   65.3937  -28.5264 H       1  UNL1        0.0313
     29 H         -20.9001   66.7713  -26.8192 H       1  UNL1        0.0269
     30 H         -22.3507   66.7752  -25.8166 H       1  UNL1        0.0269
     31 H         -20.5801   64.4003  -26.5082 H       1  UNL1        0.0280
     32 H         -20.8226   65.1111  -24.9236 H       1  UNL1        0.0280
     33 H         -22.0785   62.9775  -25.2493 H       1  UNL1        0.0464
     34 H         -23.1378   64.3246  -24.8337 H       1  UNL1        0.0464
     35 H         -24.3656   64.7393  -28.3541 H       1  UNL1        0.0467
     36 H         -24.5039   65.4510  -26.7337 H       1  UNL1        0.0467
     37 H         -27.2410   61.7988  -26.6199 H       1  UNL1        0.1048
     38 H         -21.7276   58.5196  -27.3041 H       1  UNL1        0.0814
     39 H         -19.7940   60.1741  -26.2040 H       1  UNL1        0.0624
     40 H         -17.6709   61.2903  -26.7930 H       1  UNL1        0.0618
     41 H         -17.6344   63.1049  -28.4764 H       1  UNL1        0.0630
     42 H         -21.8762   62.6426  -29.0611 H       1  UNL1        0.0636
     43 H         -24.1877   58.1774  -26.8694 H       1  UNL1        0.1668
@<TRIPOS>BOND
     1     2     1    1
     2     2     3    1
     3     3     4    1
     4     4     5    1
     5     5    20    1
     6     6    20    1
     7     6     2    1
     8     8    21   ar
     9     9    22   ar
    10     9    23   ar
    11    11    12    1
    12    11    19   ar
    13    13    14   ar
    14    15    16   ar
    15    16    18    1
    16    17    12   ar
    17    19     7   ar
    18    20     7    1
    19    23    10   ar
    20     7    21   ar
    21     8    22   ar
    22    10    11   ar
    23    12    13   ar
    24    14    15   ar
    25    16    17   ar
    26    19     9   ar
    27    18    24    3
    28     1    25    1
    29     1    26    1
    30     1    27    1
    31     2    28    1
    32     3    29    1
    33     3    30    1
    34     4    31    1
    35     4    32    1
    36     5    33    1
    37     5    34    1
    38     6    35    1
    39     6    36    1
    40     8    37    1
    41    10    38    1
    42    13    39    1
    43    14    40    1
    44    15    41    1
    45    17    42    1
    46    23    43    1
@<TRIPOS>MOLECULE
CHEMBL2152300
 39 42 0 0 0
SMALL
GASTEIGER

@<TRIPOS>ATOM
      1 N         -17.7624   56.8967  -24.5590 N.1     1  UNL1       -0.1961
      2 N         -22.4756   57.4149  -25.6644 N.am    1  UNL1       -0.2987
      3 N         -23.9696   60.6113  -27.0083 N.ar    1  UNL1       -0.3249
      4 N         -25.2387   62.4489  -26.7995 N.ar    1  UNL1       -0.2342
      5 N         -22.0001   64.2188  -27.4981 N.ar    1  UNL1       -0.2353
      6 N         -19.9825   62.9168  -27.8751 N.ar    1  UNL1       -0.3458
      7 C         -18.8180   57.3196  -24.7914 C.1     1  UNL1        0.0719
      8 C         -20.1119   57.9431  -25.0848 C.3     1  UNL1        0.1112
      9 C         -21.2022   56.9261  -25.3582 C.2     1  UNL1        0.2295
     10 C         -23.5587   56.4551  -25.8918 C.3     1  UNL1        0.0148
     11 C         -24.3249   56.7788  -27.1720 C.3     1  UNL1       -0.0352
     12 C         -24.8049   58.2303  -27.1804 C.3     1  UNL1       -0.0292
     13 C         -23.6188   59.1972  -26.9763 C.3     1  UNL1        0.0517
     14 C         -25.2214   61.1326  -26.7573 C.ar    1  UNL1        0.0974
     15 C         -23.9493   62.8135  -27.0873 C.ar    1  UNL1        0.1077
     16 C         -23.3378   64.0718  -27.2394 C.ar    1  UNL1        0.0573
     17 C         -21.3174   63.0681  -27.6244 C.ar    1  UNL1        0.1402
     18 C         -19.6772   61.5713  -27.9448 C.ar    1  UNL1        0.0042
     19 C         -20.8381   60.8415  -27.7478 C.ar    1  UNL1       -0.0330
     20 C         -21.8471   61.8032  -27.5155 C.ar    1  UNL1        0.0442
     21 C         -23.1725   61.6776  -27.2303 C.ar    1  UNL1        0.0812
     22 C         -22.8802   58.8294  -25.6719 C.3     1  UNL1        0.0355
     23 O         -20.9775   55.7161  -25.3236 O.2     1  UNL1       -0.2745
     24 H         -19.3397   63.6869  -27.9930 H       1  UNL1        0.1668
     25 H         -20.4143   58.5677  -24.2381 H       1  UNL1        0.0513
     26 H         -20.0009   58.5774  -25.9682 H       1  UNL1        0.0513
     27 H         -23.1831   55.4287  -25.9450 H       1  UNL1        0.0464
     28 H         -24.2259   56.5115  -25.0234 H       1  UNL1        0.0464
     29 H         -23.6766   56.6084  -28.0403 H       1  UNL1        0.0281
     30 H         -25.1827   56.1043  -27.2698 H       1  UNL1        0.0281
     31 H         -25.3134   58.4446  -28.1279 H       1  UNL1        0.0286
     32 H         -25.5463   58.3542  -26.3810 H       1  UNL1        0.0286
     33 H         -22.9529   59.0373  -27.8323 H       1  UNL1        0.0544
     34 H         -26.0903   60.5228  -26.5459 H       1  UNL1        0.1029
     35 H         -23.9083   64.9886  -27.1432 H       1  UNL1        0.0853
     36 H         -18.6610   61.2566  -28.1447 H       1  UNL1        0.0807
     37 H         -20.8979   59.7655  -27.7829 H       1  UNL1        0.0640
     38 H         -22.0205   59.4819  -25.5145 H       1  UNL1        0.0485
     39 H         -23.5381   58.9774  -24.8057 H       1  UNL1        0.0485
@<TRIPOS>BOND
     1     3    14   ar
     2     6    18   ar
     3     8     7    1
     4     8     9    1
     5     9     2   am
     6    10     2    1
     7    10    11    1
     8    11    12    1
     9    12    13    1
    10    13     3    1
    11    13    22    1
    12    15     4   ar
    13    16     5   ar
    14    17     6   ar
    15    19    20   ar
    16    20    17   ar
    17    21     3   ar
    18    21    15   ar
    19    22     2    1
    20     9    23    2
    21    14     4   ar
    22    15    16   ar
    23    17     5   ar
    24    18    19   ar
    25    20    21   ar
    26     7     1    3
    27     6    24    1
    28     8    25    1
    29     8    26    1
    30    10    27    1
    31    10    28    1
    32    11    29    1
    33    11    30    1
    34    12    31    1
    35    12    32    1
    36    13    33    1
    37    14    34    1
    38    16    35    1
    39    18    36    1
    40    19    37    1
    41    22    38    1
    42    22    39    1
@<TRIPOS>MOLECULE
CHEMBL2314501
 46 49 0 0 0
SMALL
GASTEIGER

@<TRIPOS>ATOM
      1 N         -26.4011   60.4767  -26.5795 N.ar    1  UNL1       -0.1990
      2 N         -25.4689   62.6498  -26.8988 N.ar    1  UNL1       -0.1967
      3 N         -25.2198   58.4375  -26.5370 N.pl3   1  UNL1       -0.3133
      4 N         -26.5644   55.8864  -28.1152 N.3     1  UNL1       -0.3038
      5 N         -23.1222   62.6453  -27.3059 N.ar    1  UNL1       -0.3389
      6 N         -27.7141   62.3677  -26.4798 N.pl3   1  UNL1       -0.3274
      7 C         -26.4809   61.8130  -26.6678 C.ar    1  UNL1        0.2161
      8 C         -24.3087   62.0080  -27.0600 C.ar    1  UNL1        0.1455
      9 C         -24.0866   60.6395  -27.0020 C.ar    1  UNL1        0.0593
     10 C         -25.2104   59.8155  -26.7194 C.ar    1  UNL1        0.1357
     11 C         -26.5089   57.7541  -26.3377 C.3     1  UNL1        0.0263
     12 C         -27.0650   57.2070  -27.6718 C.3     1  UNL1        0.0144
     13 C         -25.1236   55.6444  -27.9997 C.3     1  UNL1        0.0001
     14 C         -24.1659   56.8372  -28.0719 C.3     1  UNL1       -0.0244
     15 C         -24.0821   57.5611  -26.7304 C.3     1  UNL1        0.0147
     16 C         -27.0592   55.5881  -29.4597 C.3     1  UNL1       -0.0127
     17 C         -22.6916   60.4946  -27.2591 C.ar    1  UNL1       -0.0238
     18 C         -22.0949   61.7381  -27.4315 C.ar    1  UNL1        0.0487
     19 C         -20.6872   62.0793  -27.6976 C.ar    1  UNL1       -0.0016
     20 C         -20.2449   63.4029  -27.8311 C.ar    1  UNL1       -0.0526
     21 C         -18.8972   63.6872  -28.0899 C.ar    1  UNL1       -0.0611
     22 C         -17.9706   62.6553  -28.2173 C.ar    1  UNL1       -0.0617
     23 C         -18.3880   61.3372  -28.0835 C.ar    1  UNL1       -0.0611
     24 C         -19.7318   61.0555  -27.8257 C.ar    1  UNL1       -0.0526
     25 H         -23.0479   63.6483  -27.3793 H       1  UNL1        0.1673
     26 H         -28.4568   61.7503  -26.2021 H       1  UNL1        0.1452
     27 H         -27.7732   63.3696  -26.4345 H       1  UNL1        0.1452
     28 H         -26.3829   56.9298  -25.6234 H       1  UNL1        0.0477
     29 H         -27.2550   58.4081  -25.8712 H       1  UNL1        0.0477
     30 H         -28.1499   57.1005  -27.5420 H       1  UNL1        0.0442
     31 H         -26.9152   57.9572  -28.4592 H       1  UNL1        0.0442
     32 H         -24.9652   55.1267  -27.0442 H       1  UNL1        0.0427
     33 H         -24.8032   54.9075  -28.7486 H       1  UNL1        0.0427
     34 H         -23.1675   56.4467  -28.3064 H       1  UNL1        0.0293
     35 H         -24.4349   57.5133  -28.8924 H       1  UNL1        0.0293
     36 H         -24.0503   56.8297  -25.9126 H       1  UNL1        0.0464
     37 H         -23.1297   58.0708  -26.6374 H       1  UNL1        0.0464
     38 H         -28.1534   55.5325  -29.4576 H       1  UNL1        0.0391
     39 H         -26.7469   56.3423  -30.1901 H       1  UNL1        0.0391
     40 H         -26.7065   54.6098  -29.8071 H       1  UNL1        0.0391
     41 H         -22.1399   59.5721  -27.3172 H       1  UNL1        0.0646
     42 H         -20.9288   64.2407  -27.7381 H       1  UNL1        0.0624
     43 H         -18.5705   64.7190  -28.1926 H       1  UNL1        0.0618
     44 H         -16.9261   62.8768  -28.4195 H       1  UNL1        0.0618
     45 H         -17.6739   60.5233  -28.1790 H       1  UNL1        0.0618
     46 H         -20.0153   60.0115  -27.7278 H       1  UNL1        0.0624
@<TRIPOS>BOND
     1     5     8   ar
     2     7     2   ar
     3     7     6    1
     4     8     9   ar
     5     9    17   ar
     6    10     3    1
     7    10     1   ar
     8    11     3    1
     9    11    12    1
    10    12     4    1
    11    13     4    1
    12    13    14    1
    13    14    15    1
    14    15     3    1
    15    16     4    1
    16    18     5   ar
    17    18    19    1
    18    20    21   ar
    19    22    23   ar
    20    24    19   ar
    21     7     1   ar
    22     8     2   ar
    23     9    10   ar
    24    17    18   ar
    25    19    20   ar
    26    21    22   ar
    27    23    24   ar
    28     5    25    1
    29     6    26    1
    30     6    27    1
    31    11    28    1
    32    11    29    1
    33    12    30    1
    34    12    31    1
    35    13    32    1
    36    13    33    1
    37    14    34    1
    38    14    35    1
    39    15    36    1
    40    15    37    1
    41    16    38    1
    42    16    39    1
    43    16    40    1
    44    17    41    1
    45    20    42    1
    46    21    43    1
    47    22    44    1
    48    23    45    1
    49    24    46    1
@<TRIPOS>MOLECULE
CHEMBL3393342
 43 46 0 0 0
SMALL
GASTEIGER

@<TRIPOS>ATOM
      1 C         -19.7769   64.0736  -29.8291 C.1     1  UNL1        0.0992
      2 C         -19.7657   62.9998  -28.8786 C.ar    1  UNL1        0.0523
      3 C         -20.9576   62.3472  -28.5517 C.ar    1  UNL1       -0.0366
      4 C         -20.9773   61.3373  -27.5790 C.ar    1  UNL1       -0.0145
      5 C         -19.7784   60.9615  -26.9633 C.ar    1  UNL1       -0.0539
      6 C         -18.5820   61.6015  -27.2992 C.ar    1  UNL1       -0.0600
      7 C         -18.5759   62.6239  -28.2501 C.ar    1  UNL1       -0.0443
      8 C         -22.2402   60.7081  -27.2240 C.ar    1  UNL1        0.0121
      9 C         -23.5264   61.3031  -26.9887 C.ar    1  UNL1        0.0662
     10 C         -24.4287   60.2558  -26.8783 C.ar    1  UNL1        0.1438
     11 C         -26.1623   61.6210  -26.7286 C.ar    1  UNL1        0.1204
     12 C         -24.0554   62.6097  -26.8838 C.ar    1  UNL1        0.1343
     13 C         -23.7602   64.9376  -27.5225 C.3     1  UNL1        0.0161
     14 C         -23.0457   66.2165  -27.0470 C.3     1  UNL1       -0.0280
     15 C         -21.5560   65.9625  -26.8035 C.3     1  UNL1       -0.0476
     16 C         -21.3139   64.8320  -25.8028 C.3     1  UNL1       -0.0369
     17 C         -22.5263   63.9268  -25.5883 C.3     1  UNL1        0.0135
     18 C         -23.2442   67.3556  -28.0469 C.3     1  UNL1       -0.0610
     19 C         -22.4047   59.3352  -27.1579 C.ar    1  UNL1        0.0120
     20 N         -19.7885   64.9546  -30.5831 N.1     1  UNL1       -0.1909
     21 N         -25.7585   60.3408  -26.7378 N.ar    1  UNL1       -0.2178
     22 N         -25.4052   62.7331  -26.7912 N.ar    1  UNL1       -0.2200
     23 N         -23.2539   63.7482  -26.8395 N.pl3   1  UNL1       -0.3143
     24 N         -23.7344   59.0801  -26.9388 N.ar    1  UNL1       -0.3451
     25 H         -21.8843   62.6475  -29.0396 H       1  UNL1        0.0636
     26 H         -19.7683   60.1807  -26.2062 H       1  UNL1        0.0624
     27 H         -17.6557   61.3100  -26.8098 H       1  UNL1        0.0618
     28 H         -17.6422   63.1290  -28.4898 H       1  UNL1        0.0630
     29 H         -27.2335   61.7823  -26.6545 H       1  UNL1        0.1048
     30 H         -23.6074   64.8009  -28.6007 H       1  UNL1        0.0467
     31 H         -24.8367   65.0783  -27.3634 H       1  UNL1        0.0467
     32 H         -23.5014   66.5231  -26.0957 H       1  UNL1        0.0313
     33 H         -21.0752   65.7014  -27.7536 H       1  UNL1        0.0269
     34 H         -21.0585   66.8746  -26.4532 H       1  UNL1        0.0269
     35 H         -20.4597   64.2374  -26.1459 H       1  UNL1        0.0280
     36 H         -21.0108   65.2498  -24.8354 H       1  UNL1        0.0280
     37 H         -22.1740   62.9765  -25.1681 H       1  UNL1        0.0464
     38 H         -23.1930   64.3703  -24.8374 H       1  UNL1        0.0464
     39 H         -23.0634   68.3210  -27.5624 H       1  UNL1        0.0233
     40 H         -22.5536   67.2722  -28.8932 H       1  UNL1        0.0233
     41 H         -24.2649   67.3655  -28.4425 H       1  UNL1        0.0233
     42 H         -21.7052   58.5198  -27.2872 H       1  UNL1        0.0814
     43 H         -24.1678   58.1707  -26.8712 H       1  UNL1        0.1668
@<TRIPOS>BOND
     1     2     1    1
     2     3     4   ar
     3     4     8    1
     4     5     6   ar
     5     7     2   ar
     6     8     9   ar
     7     9    10   ar
     8    10    24   ar
     9    11    21   ar
    10    12    22   ar
    11    12    23    1
    12    13    23    1
    13    13    14    1
    14    14    15    1
    15    14    18    1
    16    15    16    1
    17    16    17    1
    18    17    23    1
    19    24    19   ar
    20     2     3   ar
    21     4     5   ar
    22     6     7   ar
    23    10    21   ar
    24    11    22   ar
    25    12     9   ar
    26    19     8   ar
    27     1    20    3
    28     3    25    1
    29     5    26    1
    30     6    27    1
    31     7    28    1
    32    11    29    1
    33    13    30    1
    34    13    31    1
    35    14    32    1
    36    15    33    1
    37    15    34    1
    38    16    35    1
    39    16    36    1
    40    17    37    1
    41    17    38    1
    42    18    39    1
    43    18    40    1
    44    18    41    1
    45    19    42    1
    46    24    43    1
@<TRIPOS>MOLECULE
CHEMBL4468002
 54 58 0 0 0
SMALL
GASTEIGER

@<TRIPOS>ATOM
      1 C         -23.4137   61.8245  -31.5974 C.3     1  UNL1       -0.0366
      2 C         -22.0064   62.0745  -31.0618 C.3     1  UNL1       -0.0434
      3 C         -22.0217   63.0355  -29.8555 C.3     1  UNL1        0.0000
      4 C         -23.4429   63.2664  -29.2873 C.3     1  UNL1        0.0203
      5 C         -24.2970   61.2393  -30.4935 C.3     1  UNL1        0.0136
      6 C         -24.8436   61.6396  -28.0895 C.ar    1  UNL1        0.1338
      7 C         -25.2962   62.1549  -25.8367 C.ar    1  UNL1        0.1204
      8 C         -26.0088   60.2005  -26.5692 C.ar    1  UNL1        0.1432
      9 C         -25.5242   60.4150  -27.8554 C.ar    1  UNL1        0.0585
     10 C         -25.8726   59.2377  -28.5900 C.ar    1  UNL1       -0.0318
     11 C         -26.5229   58.3664  -27.7414 C.ar    1  UNL1        0.0042
     12 C         -21.0158   62.6274  -28.7850 C.ar    1  UNL1       -0.0410
     13 C         -21.1758   61.4638  -28.0050 C.ar    1  UNL1       -0.0369
     14 C         -20.2675   61.1334  -26.9873 C.ar    1  UNL1        0.0350
     15 C         -19.1692   61.9687  -26.7791 C.ar    1  UNL1       -0.0404
     16 C         -18.9886   63.1171  -27.5506 C.ar    1  UNL1       -0.0597
     17 C         -19.9055   63.4464  -28.5440 C.ar    1  UNL1       -0.0581
     18 C         -19.8077   59.5366  -25.1141 C.2     1  UNL1        0.3082
     19 C         -19.6167   57.5012  -23.6710 C.ar    1  UNL1        0.0529
     20 C         -20.1937   56.2799  -23.3233 C.ar    1  UNL1        0.0488
     21 C         -18.6240   55.8518  -21.6964 C.ar    1  UNL1        0.0277
     22 C         -17.9661   57.0382  -21.9642 C.ar    1  UNL1       -0.0418
     23 C         -18.4714   57.8682  -22.9655 C.ar    1  UNL1       -0.0375
     24 N         -24.2155   62.0191  -29.2662 N.pl3   1  UNL1       -0.3140
     25 N         -24.7694   62.4921  -27.0258 N.ar    1  UNL1       -0.2200
     26 N         -25.9265   61.0210  -25.5150 N.ar    1  UNL1       -0.2178
     27 N         -26.6034   58.9707  -26.5177 N.ar    1  UNL1       -0.3457
     28 N         -20.5112   59.9587  -26.2328 N.am    1  UNL1       -0.2692
     29 N         -20.2017   58.2710  -24.7073 N.am    1  UNL1       -0.2678
     30 N         -19.7296   55.4483  -22.3563 N.ar    1  UNL1       -0.2614
     31 O         -18.9378   60.1947  -24.5517 O.2     1  UNL1       -0.2522
     32 H         -23.8420   62.7615  -31.9746 H       1  UNL1        0.0281
     33 H         -23.3749   61.1319  -32.4457 H       1  UNL1        0.0281
     34 H         -21.5532   61.1096  -30.8014 H       1  UNL1        0.0272
     35 H         -21.3784   62.4953  -31.8567 H       1  UNL1        0.0272
     36 H         -21.7039   64.0179  -30.2344 H       1  UNL1        0.0364
     37 H         -23.3609   63.7672  -28.3156 H       1  UNL1        0.0470
     38 H         -23.9767   63.9768  -29.9334 H       1  UNL1        0.0470
     39 H         -23.9411   60.2205  -30.3066 H       1  UNL1        0.0464
     40 H         -25.3323   61.1931  -30.8498 H       1  UNL1        0.0464
     41 H         -25.1895   62.8900  -25.0452 H       1  UNL1        0.1048
     42 H         -25.6757   59.0305  -29.6316 H       1  UNL1        0.0640
     43 H         -26.9371   57.3806  -27.9060 H       1  UNL1        0.0807
     44 H         -22.0349   60.8234  -28.1855 H       1  UNL1        0.0639
     45 H         -18.4215   61.7568  -26.0226 H       1  UNL1        0.0636
     46 H         -18.1301   63.7570  -27.3650 H       1  UNL1        0.0618
     47 H         -19.7474   64.3543  -29.1211 H       1  UNL1        0.0620
     48 H         -21.0849   55.9126  -23.8233 H       1  UNL1        0.0848
     49 H         -18.2662   55.1773  -20.9238 H       1  UNL1        0.0829
     50 H         -17.0762   57.3194  -21.4117 H       1  UNL1        0.0633
     51 H         -17.9362   58.7889  -23.1707 H       1  UNL1        0.0637
     52 H         -27.0290   58.5916  -25.6842 H       1  UNL1        0.1668
     53 H         -21.3151   59.4177  -26.5113 H       1  UNL1        0.1564
     54 H         -20.9954   57.8642  -25.1778 H       1  UNL1        0.1564
@<TRIPOS>BOND
     1     1     2    1
     2     2     3    1
     3     3     4    1
     4     3    12    1
     5     4    24    1
     6     5    24    1
     7     5     1    1
     8     7    25   ar
     9     8    26   ar
    10     9    10   ar
    11     9     6   ar
    12    11    27   ar
    13    13    14   ar
    14    14    28    1
    15    15    16   ar
    16    17    12   ar
    17    18    29   am
    18    20    30   ar
    19    21    22   ar
    20    23    19   ar
    21    24     6    1
    22    27     8   ar
    23    28    18   am
    24    29    19    1
    25     6    25   ar
    26     7    26   ar
    27     8     9   ar
    28    10    11   ar
    29    12    13   ar
    30    14    15   ar
    31    16    17   ar
    32    18    31    2
    33    19    20   ar
    34    21    30   ar
    35    22    23   ar
    36     1    32    1
    37     1    33    1
    38     2    34    1
    39     2    35    1
    40     3    36    1
    41     4    37    1
    42     4    38    1
    43     5    39    1
    44     5    40    1
    45     7    41    1
    46    10    42    1
    47    11    43    1
    48    13    44    1
    49    15    45    1
    50    16    46    1
    51    17    47    1
    52    20    48    1
    53    21    49    1
    54    22    50    1
    55    23    51    1
    56    27    52    1
    57    28    53    1
    58    29    54    1
@<TRIPOS>MOLECULE
CHEMBL585734
 63 66 0 0 0
SMALL
GASTEIGER

@<TRIPOS>ATOM
      1 C         -26.8538   59.4944  -30.1269 C.3     1  UNL1       -0.0376
      2 C         -26.7429   59.5668  -28.6458 C.ar    1  UNL1       -0.0206
      3 C         -27.2523   58.6307  -27.7618 C.ar    1  UNL1        0.0071
      4 C         -26.3607   60.2698  -26.5272 C.ar    1  UNL1        0.1434
      5 C         -25.4288   62.1291  -25.7784 C.ar    1  UNL1        0.1204
      6 C         -25.4420   61.8204  -28.0931 C.ar    1  UNL1        0.1342
      7 C         -25.0155   63.7134  -29.5993 C.3     1  UNL1        0.0426
      8 C         -23.5772   64.2075  -29.4117 C.3     1  UNL1        0.0765
      9 C         -21.4299   64.0269  -30.6109 C.cat   1  UNL1        0.3883
     10 C         -20.5567   65.6355  -31.9621 C.1     1  UNL1        0.2951
     11 C         -19.7663   62.9673  -29.0270 C.ar    1  UNL1        0.0924
     12 C         -20.4912   63.0984  -27.8407 C.ar    1  UNL1       -0.0252
     13 C         -20.1096   62.4433  -26.6719 C.ar    1  UNL1       -0.0580
     14 C         -18.9564   61.6669  -26.6550 C.ar    1  UNL1       -0.0494
     15 C         -18.1686   61.5595  -27.8059 C.ar    1  UNL1        0.0398
     16 C         -16.8909   60.7814  -27.8412 C.2     1  UNL1        0.2444
     17 C         -15.1659   59.5361  -26.5634 C.3     1  UNL1        0.0178
     18 C         -15.1803   58.6261  -25.3371 C.3     1  UNL1       -0.0469
     19 C         -13.9764   60.4925  -26.5066 C.3     1  UNL1       -0.0469
     20 C         -18.5926   62.1973  -28.9888 C.ar    1  UNL1       -0.0131
     21 C         -22.7276   61.9112  -30.0287 C.3     1  UNL1        0.0845
     22 C         -21.9237   61.1464  -31.0988 C.3     1  UNL1       -0.0315
     23 C         -24.2132   61.4717  -30.1730 C.3     1  UNL1        0.0452
     24 C         -26.1293   60.6037  -27.8547 C.ar    1  UNL1        0.0614
     25 N         -27.0164   59.0718  -26.4882 N.ar    1  UNL1       -0.3454
     26 N         -26.0273   60.9777  -25.4398 N.ar    1  UNL1       -0.2178
     27 N         -25.1245   62.5821  -27.0117 N.ar    1  UNL1       -0.2200
     28 N         -25.1289   62.2757  -29.3619 N.pl3   1  UNL1       -0.3086
     29 N         -22.5626   63.3890  -30.1266 N.pl3   1  UNL1       -0.2183
     30 N         -21.6192   65.0300  -31.4270 N.2     1  UNL1        0.0068
     31 N         -19.6121   66.1230  -32.4213 N.1     1  UNL1       -0.1505
     32 N         -20.1986   63.5074  -30.2581 N.pl3   1  UNL1       -0.2052
     33 N         -16.4163   60.2775  -26.6444 N.am    1  UNL1       -0.3090
     34 O         -16.2984   60.6310  -28.9052 O.2     1  UNL1       -0.2702
     35 H         -27.7812   58.9945  -30.4237 H       1  UNL1        0.0278
     36 H         -26.8657   60.4898  -30.5792 H       1  UNL1        0.0278
     37 H         -26.0153   58.9272  -30.5434 H       1  UNL1        0.0278
     38 H         -27.7845   57.7045  -27.9362 H       1  UNL1        0.0810
     39 H         -25.1541   62.7784  -24.9524 H       1  UNL1        0.1048
     40 H         -25.3228   63.9098  -30.6338 H       1  UNL1        0.0493
     41 H         -25.7029   64.2857  -28.9638 H       1  UNL1        0.0493
     42 H         -23.5311   65.2527  -29.7401 H       1  UNL1        0.0650
     43 H         -23.3390   64.2102  -28.3443 H       1  UNL1        0.0650
     44 H         -21.3785   63.7164  -27.8034 H       1  UNL1        0.0650
     45 H         -20.7211   62.5381  -25.7780 H       1  UNL1        0.0619
     46 H         -18.7109   61.1595  -25.7304 H       1  UNL1        0.0625
     47 H         -15.0819   58.9186  -27.4653 H       1  UNL1        0.0493
     48 H         -15.2669   59.2091  -24.4123 H       1  UNL1        0.0247
     49 H         -16.0345   57.9410  -25.3698 H       1  UNL1        0.0247
     50 H         -14.2643   58.0299  -25.2783 H       1  UNL1        0.0247
     51 H         -13.8955   60.9687  -25.5230 H       1  UNL1        0.0247
     52 H         -13.0429   59.9536  -26.6984 H       1  UNL1        0.0247
     53 H         -14.0648   61.2914  -27.2504 H       1  UNL1        0.0247
     54 H         -17.9972   62.0792  -29.8937 H       1  UNL1        0.0658
     55 H         -22.3937   61.5911  -29.0359 H       1  UNL1        0.0684
     56 H         -21.0719   60.6372  -30.6354 H       1  UNL1        0.0262
     57 H         -22.5205   60.3646  -31.5831 H       1  UNL1        0.0262
     58 H         -21.5408   61.7862  -31.8993 H       1  UNL1        0.0262
     59 H         -24.5248   61.5769  -31.2201 H       1  UNL1        0.0496
     60 H         -24.2778   60.4052  -29.9311 H       1  UNL1        0.0496
     61 H         -27.3010   58.6147  -25.6343 H       1  UNL1        0.1668
     62 H         -19.4201   63.7360  -30.8683 H       1  UNL1        0.2512
     63 H         -16.8820   60.4840  -25.7760 H       1  UNL1        0.1493
@<TRIPOS>BOND
     1     1     2    1
     2     3    25   ar
     3     5    26   ar
     4     6    27   ar
     5     6    28    1
     6     7    28    1
     7     7     8    1
     8     8    29    1
     9     9    32    1
    10    12    13   ar
    11    14    15   ar
    12    15    16    1
    13    16    33   am
    14    17    33    1
    15    17    18    1
    16    17    19    1
    17    20    11   ar
    18    21    29    1
    19    21    22    1
    20    21    23    1
    21    23    28    1
    22    24     2   ar
    23    24     4   ar
    24    25     4   ar
    25    29     9    1
    26    30    10    1
    27    32    11    1
    28     2     3   ar
    29     4    26   ar
    30     5    27   ar
    31     6    24   ar
    32     9    30    2
    33    11    12   ar
    34    13    14   ar
    35    15    20   ar
    36    16    34    2
    37    10    31    3
    38     1    35    1
    39     1    36    1
    40     1    37    1
    41     3    38    1
    42     5    39    1
    43     7    40    1
    44     7    41    1
    45     8    42    1
    46     8    43    1
    47    12    44    1
    48    13    45    1
    49    14    46    1
    50    17    47    1
    51    18    48    1
    52    18    49    1
    53    18    50    1
    54    19    51    1
    55    19    52    1
    56    19    53    1
    57    20    54    1
    58    21    55    1
    59    22    56    1
    60    22    57    1
    61    22    58    1
    62    23    59    1
    63    23    60    1
    64    25    61    1
    65    32    62    1
    66    33    63    1
@<TRIPOS>MOLECULE
CHEMBL3593766
 49 52 0 0 0
SMALL
GASTEIGER

@<TRIPOS>ATOM
      1 C         -25.6118   61.5897  -29.1052 C.ar    1  UNL1        0.0519
      2 C         -26.5938   62.6320  -29.0010 C.ar    1  UNL1        0.0760
      3 C         -26.7493   63.3174  -27.7954 C.ar    1  UNL1        0.0438
      4 C         -25.1361   62.1429  -26.7900 C.ar    1  UNL1        0.1399
      5 C         -24.8570   61.3619  -27.9132 C.ar    1  UNL1        0.0402
      6 C         -23.8060   60.4918  -27.4840 C.ar    1  UNL1       -0.0333
      7 C         -23.4948   60.7609  -26.1690 C.ar    1  UNL1        0.0042
      8 C         -27.4604   62.9965  -30.1720 C.2     1  UNL1        0.2448
      9 C         -24.4040   60.0587  -30.8422 C.3     1  UNL1        0.0334
     10 C         -24.5141   58.6328  -30.3109 C.3     1  UNL1       -0.0322
     11 C         -23.2927   57.7682  -30.6378 C.3     1  UNL1       -0.0385
     12 C         -21.9804   58.5280  -30.8833 C.3     1  UNL1       -0.0007
     13 C         -22.9983   60.6953  -30.7679 C.3     1  UNL1        0.0176
     14 C         -20.6327   60.4674  -30.2529 C.3     1  UNL1        0.0241
     15 C         -20.2936   61.2305  -28.9833 C.ar    1  UNL1       -0.0334
     16 C         -19.3454   60.7159  -28.0847 C.ar    1  UNL1       -0.0573
     17 C         -19.0152   61.4076  -26.9156 C.ar    1  UNL1       -0.0615
     18 C         -19.6412   62.6151  -26.6168 C.ar    1  UNL1       -0.0617
     19 C         -20.5856   63.1387  -27.4944 C.ar    1  UNL1       -0.0615
     20 C         -20.8969   62.4594  -28.6750 C.ar    1  UNL1       -0.0573
     21 N         -26.0467   63.1180  -26.6616 N.ar    1  UNL1       -0.2366
     22 N         -24.3131   61.7709  -25.7634 N.ar    1  UNL1       -0.3458
     23 N         -28.3115   64.0681  -30.0868 N.am    1  UNL1       -0.3253
     24 N         -25.4543   60.9297  -30.3235 N.pl3   1  UNL1       -0.3386
     25 N         -21.9548   59.8194  -30.1999 N.3     1  UNL1       -0.2964
     26 O         -27.4397   62.3645  -31.2265 O.2     1  UNL1       -0.2703
     27 H         -27.4885   64.0997  -27.6716 H       1  UNL1        0.0838
     28 H         -23.2947   59.7396  -28.0615 H       1  UNL1        0.0640
     29 H         -22.7551   60.3274  -25.5095 H       1  UNL1        0.0807
     30 H         -24.6146   59.9659  -31.9182 H       1  UNL1        0.0510
     31 H         -24.6778   58.6216  -29.2303 H       1  UNL1        0.0284
     32 H         -25.4145   58.1548  -30.7198 H       1  UNL1        0.0284
     33 H         -23.1530   57.0548  -29.8152 H       1  UNL1        0.0278
     34 H         -23.5098   57.1630  -31.5269 H       1  UNL1        0.0278
     35 H         -21.1631   57.8894  -30.5243 H       1  UNL1        0.0427
     36 H         -21.8239   58.6581  -31.9620 H       1  UNL1        0.0427
     37 H         -23.0526   61.6347  -30.2165 H       1  UNL1        0.0445
     38 H         -22.7142   60.9803  -31.7921 H       1  UNL1        0.0445
     39 H         -19.8506   59.7088  -30.3924 H       1  UNL1        0.0476
     40 H         -20.5308   61.1339  -31.1197 H       1  UNL1        0.0476
     41 H         -18.8523   59.7692  -28.2921 H       1  UNL1        0.0621
     42 H         -18.2715   60.9999  -26.2364 H       1  UNL1        0.0618
     43 H         -19.3944   63.1473  -25.7026 H       1  UNL1        0.0618
     44 H         -21.0866   64.0749  -27.2630 H       1  UNL1        0.0618
     45 H         -21.6283   62.9018  -29.3438 H       1  UNL1        0.0621
     46 H         -24.3292   62.2005  -24.8510 H       1  UNL1        0.1668
     47 H         -28.8666   64.2593  -30.9122 H       1  UNL1        0.1453
     48 H         -28.4301   64.6910  -29.3045 H       1  UNL1        0.1453
     49 H         -26.2061   61.1247  -30.9965 H       1  UNL1        0.1464
@<TRIPOS>BOND
     1     1    24    1
     2     2     3   ar
     3     2     8    1
     4     4    21   ar
     5     5     6   ar
     6     5     1   ar
     7     7    22   ar
     8     8    23   am
     9     9    24    1
    10     9    10    1
    11    10    11    1
    12    11    12    1
    13    12    25    1
    14    13    25    1
    15    13     9    1
    16    14    25    1
    17    14    15    1
    18    16    17   ar
    19    18    19   ar
    20    20    15   ar
    21    22     4   ar
    22     1     2   ar
    23     3    21   ar
    24     4     5   ar
    25     6     7   ar
    26     8    26    2
    27    15    16   ar
    28    17    18   ar
    29    19    20   ar
    30     3    27    1
    31     6    28    1
    32     7    29    1
    33     9    30    1
    34    10    31    1
    35    10    32    1
    36    11    33    1
    37    11    34    1
    38    12    35    1
    39    12    36    1
    40    13    37    1
    41    13    38    1
    42    14    39    1
    43    14    40    1
    44    16    41    1
    45    17    42    1
    46    18    43    1
    47    19    44    1
    48    20    45    1
    49    22    46    1
    50    23    47    1
    51    23    48    1
    52    24    49    1
@<TRIPOS>MOLECULE
CHEMBL4460419
 54 58 0 0 0
SMALL
GASTEIGER

@<TRIPOS>ATOM
      1 C         -23.4102   62.1728  -31.5908 C.3     1  UNL1       -0.0366
      2 C         -21.9927   62.3876  -31.0646 C.3     1  UNL1       -0.0434
      3 C         -21.9890   63.2190  -29.7651 C.3     1  UNL1        0.0000
      4 C         -23.4045   63.4138  -29.1705 C.3     1  UNL1        0.0203
      5 C         -24.2557   61.4782  -30.5215 C.3     1  UNL1        0.0136
      6 C         -24.7879   61.7035  -28.0892 C.ar    1  UNL1        0.1338
      7 C         -25.3774   62.1379  -25.8529 C.ar    1  UNL1        0.1204
      8 C         -25.7695   60.1016  -26.6047 C.ar    1  UNL1        0.1432
      9 C         -25.2878   60.3916  -27.8770 C.ar    1  UNL1        0.0585
     10 C         -25.4235   59.1751  -28.6172 C.ar    1  UNL1       -0.0318
     11 C         -25.9496   58.2100  -27.7844 C.ar    1  UNL1        0.0042
     12 C         -20.9877   62.6905  -28.7424 C.ar    1  UNL1       -0.0410
     13 C         -21.1509   61.4517  -28.0850 C.ar    1  UNL1       -0.0369
     14 C         -20.2389   61.0112  -27.1117 C.ar    1  UNL1        0.0350
     15 C         -19.1439   61.8250  -26.8165 C.ar    1  UNL1       -0.0404
     16 C         -18.9615   63.0470  -27.4639 C.ar    1  UNL1       -0.0597
     17 C         -19.8755   63.4777  -28.4186 C.ar    1  UNL1       -0.0581
     18 C         -19.7105   59.1788  -25.4839 C.2     1  UNL1        0.3092
     19 C         -19.7438   57.1641  -24.0236 C.ar    1  UNL1        0.1260
     20 C         -18.7063   57.5265  -23.1706 C.ar    1  UNL1       -0.0215
     21 C         -18.2889   56.6367  -22.1824 C.ar    1  UNL1       -0.0571
     22 C         -18.9185   55.4083  -22.0668 C.ar    1  UNL1       -0.0435
     23 C         -19.9502   55.1279  -22.9457 C.ar    1  UNL1        0.0297
     24 N         -24.1782   62.1705  -29.2429 N.pl3   1  UNL1       -0.3140
     25 N         -24.8701   62.5549  -27.0253 N.ar    1  UNL1       -0.2200
     26 N         -25.8439   60.9223  -25.5501 N.ar    1  UNL1       -0.2178
     27 N         -26.1615   58.7927  -26.5661 N.ar    1  UNL1       -0.3457
     28 N         -20.4877   59.7700  -26.4697 N.am    1  UNL1       -0.2692
     29 N         -20.2344   57.9789  -25.0547 N.am    1  UNL1       -0.2539
     30 N         -20.3793   55.9758  -23.9121 N.ar    1  UNL1       -0.2401
     31 O         -18.6714   59.6577  -25.0410 O.2     1  UNL1       -0.2521
     32 H         -23.8567   63.1346  -31.8721 H       1  UNL1        0.0281
     33 H         -23.3837   61.5594  -32.4985 H       1  UNL1        0.0281
     34 H         -21.5206   61.4082  -30.9153 H       1  UNL1        0.0272
     35 H         -21.3903   62.8965  -31.8272 H       1  UNL1        0.0272
     36 H         -21.6568   64.2296  -30.0445 H       1  UNL1        0.0364
     37 H         -23.3081   63.8278  -28.1598 H       1  UNL1        0.0470
     38 H         -23.9392   64.1783  -29.7505 H       1  UNL1        0.0470
     39 H         -23.8554   60.4658  -30.4210 H       1  UNL1        0.0464
     40 H         -25.2958   61.4166  -30.8612 H       1  UNL1        0.0464
     41 H         -25.4027   62.8763  -25.0579 H       1  UNL1        0.1048
     42 H         -25.1615   58.9982  -29.6496 H       1  UNL1        0.0640
     43 H         -26.1908   57.1695  -27.9564 H       1  UNL1        0.0807
     44 H         -22.0098   60.8334  -28.3309 H       1  UNL1        0.0639
     45 H         -18.4032   61.5494  -26.0748 H       1  UNL1        0.0636
     46 H         -18.1047   63.6647  -27.2087 H       1  UNL1        0.0618
     47 H         -19.7153   64.4402  -28.8981 H       1  UNL1        0.0620
     48 H         -18.2074   58.4852  -23.2363 H       1  UNL1        0.0652
     49 H         -17.4773   56.9112  -21.5143 H       1  UNL1        0.0619
     50 H         -18.6140   54.6929  -21.3115 H       1  UNL1        0.0633
     51 H         -20.4766   54.1790  -22.8943 H       1  UNL1        0.0830
     52 H         -26.5378   58.3474  -25.7417 H       1  UNL1        0.1668
     53 H         -21.3336   59.2909  -26.7402 H       1  UNL1        0.1564
     54 H         -21.0151   57.5656  -25.5374 H       1  UNL1        0.1578
@<TRIPOS>BOND
     1     1     2    1
     2     2     3    1
     3     3     4    1
     4     3    12    1
     5     4    24    1
     6     5    24    1
     7     5     1    1
     8     7    25   ar
     9     8    26   ar
    10     9    10   ar
    11     9     6   ar
    12    11    27   ar
    13    13    14   ar
    14    14    28    1
    15    15    16   ar
    16    17    12   ar
    17    18    29   am
    18    19    30   ar
    19    20    21   ar
    20    22    23   ar
    21    24     6    1
    22    27     8   ar
    23    28    18   am
    24    29    19    1
    25     6    25   ar
    26     7    26   ar
    27     8     9   ar
    28    10    11   ar
    29    12    13   ar
    30    14    15   ar
    31    16    17   ar
    32    18    31    2
    33    19    20   ar
    34    21    22   ar
    35    23    30   ar
    36     1    32    1
    37     1    33    1
    38     2    34    1
    39     2    35    1
    40     3    36    1
    41     4    37    1
    42     4    38    1
    43     5    39    1
    44     5    40    1
    45     7    41    1
    46    10    42    1
    47    11    43    1
    48    13    44    1
    49    15    45    1
    50    16    46    1
    51    17    47    1
    52    20    48    1
    53    21    49    1
    54    22    50    1
    55    23    51    1
    56    27    52    1
    57    28    53    1
    58    29    54    1
@<TRIPOS>MOLECULE
CHEMBL78377
 52 55 0 0 0
SMALL
GASTEIGER

@<TRIPOS>ATOM
      1 C         -29.2726   63.1923  -26.1633 C.3     1  UNL1       -0.0241
      2 C         -27.9891   62.4720  -26.3681 C.ar    1  UNL1        0.0182
      3 C         -25.7830   62.2816  -26.7379 C.ar    1  UNL1        0.1443
      4 C         -23.6846   61.6079  -27.0652 C.ar    1  UNL1        0.1640
      5 C         -22.2611   61.9030  -27.3567 C.ar    1  UNL1        0.0192
      6 C         -21.3067   60.8750  -27.4913 C.ar    1  UNL1       -0.0510
      7 C         -19.9634   61.1516  -27.7694 C.ar    1  UNL1       -0.0611
      8 C         -19.5395   62.4682  -27.9201 C.ar    1  UNL1       -0.0617
      9 C         -20.4567   63.5064  -27.7938 C.ar    1  UNL1       -0.0611
     10 C         -21.7990   63.2251  -27.5162 C.ar    1  UNL1       -0.0510
     11 C         -25.3143   59.9590  -26.6713 C.ar    1  UNL1        0.1321
     12 C         -24.6701   57.5729  -26.7396 C.3     1  UNL1        0.0119
     13 C         -24.4000   57.3306  -28.2246 C.3     1  UNL1       -0.0215
     14 C         -25.6385   56.9074  -29.0114 C.3     1  UNL1        0.0161
     15 C         -25.4944   54.3767  -28.9831 C.3     1  UNL1        0.0151
     16 C         -26.3309   53.2759  -28.3591 C.3     1  UNL1       -0.0289
     17 C         -27.6361   53.9300  -27.9246 C.3     1  UNL1        0.0256
     18 C         -27.3734   55.4112  -27.9994 C.2     1  UNL1        0.2156
     19 C         -26.2673   60.9939  -26.5806 C.ar    1  UNL1        0.0615
     20 C         -27.6871   61.1139  -26.3617 C.ar    1  UNL1       -0.0176
     21 C         -28.6568   60.0027  -26.1531 C.3     1  UNL1       -0.0373
     22 N         -26.8218   63.1547  -26.6022 N.ar    1  UNL1       -0.3428
     23 N         -24.5220   62.6578  -26.9801 N.ar    1  UNL1       -0.2097
     24 N         -24.0257   60.3072  -26.9194 N.ar    1  UNL1       -0.2121
     25 N         -25.6367   58.6274  -26.5262 N.pl3   1  UNL1       -0.3284
     26 N         -26.1567   55.6029  -28.6271 N.am    1  UNL1       -0.3014
     27 O         -28.1306   56.2782  -27.5982 O.2     1  UNL1       -0.2756
     28 H         -29.4951   63.2676  -25.0942 H       1  UNL1        0.0292
     29 H         -29.2323   64.2055  -26.5766 H       1  UNL1        0.0292
     30 H         -30.0989   62.6678  -26.6525 H       1  UNL1        0.0292
     31 H         -21.6110   59.8356  -27.3775 H       1  UNL1        0.0625
     32 H         -19.2520   60.3358  -27.8665 H       1  UNL1        0.0618
     33 H         -18.4966   62.6849  -28.1350 H       1  UNL1        0.0618
     34 H         -20.1330   64.5374  -27.9098 H       1  UNL1        0.0618
     35 H         -22.4941   64.0582  -27.4231 H       1  UNL1        0.0625
     36 H         -23.7311   57.7951  -26.2181 H       1  UNL1        0.0462
     37 H         -25.0543   56.6536  -26.2827 H       1  UNL1        0.0462
     38 H         -23.9971   58.2409  -28.6837 H       1  UNL1        0.0295
     39 H         -23.6202   56.5661  -28.3189 H       1  UNL1        0.0295
     40 H         -26.4324   57.6551  -28.9070 H       1  UNL1        0.0465
     41 H         -25.3945   56.8533  -30.0787 H       1  UNL1        0.0465
     42 H         -25.4574   54.2946  -30.0734 H       1  UNL1        0.0465
     43 H         -24.4755   54.3738  -28.5841 H       1  UNL1        0.0465
     44 H         -26.5027   52.4530  -29.0612 H       1  UNL1        0.0285
     45 H         -25.8157   52.8498  -27.4905 H       1  UNL1        0.0285
     46 H         -28.4545   53.6765  -28.6050 H       1  UNL1        0.0359
     47 H         -27.9044   53.6456  -26.9035 H       1  UNL1        0.0359
     48 H         -28.5781   59.6186  -25.1314 H       1  UNL1        0.0278
     49 H         -29.6874   60.3348  -26.3121 H       1  UNL1        0.0278
     50 H         -28.4769   59.1849  -26.8561 H       1  UNL1        0.0278
     51 H         -26.7175   64.1564  -26.6672 H       1  UNL1        0.1670
     52 H         -26.6038   58.3638  -26.3976 H       1  UNL1        0.1475
@<TRIPOS>BOND
     1     1     2    1
     2     2    22   ar
     3     4    23   ar
     4     4     5    1
     5     6     7   ar
     6     8     9   ar
     7    10     5   ar
     8    11    24   ar
     9    11    25    1
    10    12    25    1
    11    12    13    1
    12    13    14    1
    13    14    26    1
    14    15    26    1
    15    15    16    1
    16    16    17    1
    17    17    18    1
    18    18    26   am
    19    19    20   ar
    20    19     3   ar
    21    21    20    1
    22    22     3   ar
    23     3    23   ar
    24     4    24   ar
    25     5     6   ar
    26     7     8   ar
    27     9    10   ar
    28    11    19   ar
    29    18    27    2
    30    20     2   ar
    31     1    28    1
    32     1    29    1
    33     1    30    1
    34     6    31    1
    35     7    32    1
    36     8    33    1
    37     9    34    1
    38    10    35    1
    39    12    36    1
    40    12    37    1
    41    13    38    1
    42    13    39    1
    43    14    40    1
    44    14    41    1
    45    15    42    1
    46    15    43    1
    47    16    44    1
    48    16    45    1
    49    17    46    1
    50    17    47    1
    51    21    48    1
    52    21    49    1
    53    21    50    1
    54    22    51    1
    55    25    52    1
