CHEMBL4285366
     RDKit          3D

 46 50  0  0  0  0  0  0  0  0999 V2000
  -25.1511   62.7836  -23.1642 C   0  0  0  0  0  0  0  0  0  0  0  0
  -23.9251   64.2284  -24.7449 C   0  0  0  0  0  0  0  0  0  0  0  0
  -22.6250   63.8513  -25.4512 C   0  0  0  0  0  0  0  0  0  0  0  0
  -23.7136   65.5173  -26.8730 C   0  0  0  0  0  0  0  0  0  0  0  0
  -24.5522   65.2640  -25.6539 C   0  0  0  0  0  0  0  0  0  0  0  0
  -24.8829   66.5416  -24.9173 C   0  0  0  0  0  0  0  0  0  0  0  0
  -25.9925   65.7139  -25.5476 C   0  0  0  0  0  0  0  0  0  0  0  0
  -21.5001   64.5676  -27.6377 C   0  0  0  0  0  0  0  0  0  0  0  0
  -20.5939   63.3998  -27.7365 C   0  0  0  0  0  0  0  0  0  0  0  0
  -19.3768   63.5183  -28.4211 C   0  0  0  0  0  0  0  0  0  0  0  0
  -18.5361   62.4092  -28.5376 C   0  0  0  0  0  0  0  0  0  0  0  0
  -20.0803   61.0692  -27.3347 C   0  0  0  0  0  0  0  0  0  0  0  0
  -20.9469   62.1555  -27.1979 C   0  0  0  0  0  0  0  0  0  0  0  0
  -25.2538   62.2255  -25.6366 C   0  0  0  0  0  0  0  0  0  0  0  0
  -25.2705   61.7240  -27.9788 C   0  0  0  0  0  0  0  0  0  0  0  0
  -26.5059   60.3847  -26.5198 C   0  0  0  0  0  0  0  0  0  0  0  0
  -26.1103   61.1287  -25.4511 C   0  0  0  0  0  0  0  0  0  0  0  0
  -26.7002   60.5814  -24.3322 C   0  0  0  0  0  0  0  0  0  0  0  0
  -27.4390   59.5025  -24.8223 C   0  0  0  0  0  0  0  0  0  0  0  0
  -24.7902   63.0616  -24.5459 N   0  0  0  0  0  0  0  0  0  0  0  0
  -22.5859   64.6166  -26.6973 N   0  0  0  0  0  0  0  0  0  0  0  0
  -18.9012   61.2172  -27.9950 N   0  0  0  0  0  0  0  0  0  0  0  0
  -24.8593   62.4872  -26.9204 N   0  0  0  0  0  0  0  0  0  0  0  0
  -26.1017   60.6614  -27.7818 N   0  0  0  0  0  0  0  0  0  0  0  0
  -27.3198   59.3814  -26.1670 N   0  0  0  0  0  0  0  0  0  0  0  0
  -21.3206   65.5451  -28.4149 O   0  0  0  0  0  0  0  0  0  0  0  0
  -24.4618   63.3146  -22.4912 H   0  0  0  0  0  0  0  0  0  0  0  0
  -26.1803   63.1245  -22.9783 H   0  0  0  0  0  0  0  0  0  0  0  0
  -25.0841   61.7015  -22.9783 H   0  0  0  0  0  0  0  0  0  0  0  0
  -23.7580   64.6207  -23.7309 H   0  0  0  0  0  0  0  0  0  0  0  0
  -21.7620   64.1101  -24.8202 H   0  0  0  0  0  0  0  0  0  0  0  0
  -22.5818   62.7702  -25.6495 H   0  0  0  0  0  0  0  0  0  0  0  0
  -23.3792   66.5646  -26.9104 H   0  0  0  0  0  0  0  0  0  0  0  0
  -24.2585   65.3460  -27.8131 H   0  0  0  0  0  0  0  0  0  0  0  0
  -24.7842   66.5872  -23.8227 H   0  0  0  0  0  0  0  0  0  0  0  0
  -24.5557   67.5893  -24.9898 H   0  0  0  0  0  0  0  0  0  0  0  0
  -26.6967   65.1600  -24.9094 H   0  0  0  0  0  0  0  0  0  0  0  0
  -26.8016   65.9134  -26.2657 H   0  0  0  0  0  0  0  0  0  0  0  0
  -19.0847   64.4814  -28.8651 H   0  0  0  0  0  0  0  0  0  0  0  0
  -17.5773   62.5001  -29.0690 H   0  0  0  0  0  0  0  0  0  0  0  0
  -20.3520   60.0925  -26.9077 H   0  0  0  0  0  0  0  0  0  0  0  0
  -21.9038   62.0347  -26.6689 H   0  0  0  0  0  0  0  0  0  0  0  0
  -24.9284   61.9692  -28.9951 H   0  0  0  0  0  0  0  0  0  0  0  0
  -26.6096   60.9183  -23.2890 H   0  0  0  0  0  0  0  0  0  0  0  0
  -28.0440   58.8326  -24.1937 H   0  0  0  0  0  0  0  0  0  0  0  0
  -27.7563   58.6772  -26.7789 H   0  0  0  0  0  0  0  0  0  0  0  0
  1 20  1  0
  2 20  1  0
  2  3  1  0
  3 21  1  0
  4 21  1  0
  4  5  1  0
  5  6  1  0
  5  2  1  0
  6  7  1  0
  7  5  1  0
  8  9  1  0
 10 11  2  0
 12 22  2  0
 13  9  2  0
 15 23  2  0
 16 24  2  0
 17 18  1  0
 17 14  2  0
 19 25  1  0
 20 14  1  0
 21  8  1  0
 25 16  1  0
  8 26  2  0
  9 10  1  0
 11 22  1  0
 12 13  1  0
 14 23  1  0
 15 24  1  0
 16 17  1  0
 18 19  2  0
  1 27  1  0
  1 28  1  0
  1 29  1  0
  2 30  1  0
  3 31  1  0
  3 32  1  0
  4 33  1  0
  4 34  1  0
  6 35  1  0
  6 36  1  0
  7 37  1  0
  7 38  1  0
 10 39  1  0
 11 40  1  0
 12 41  1  0
 13 42  1  0
 15 43  1  0
 18 44  1  0
 19 45  1  0
 25 46  1  0
M  END
>  <rmsd>  (1) 
0.600831091

$$$$
CHEMBL4293188
     RDKit          3D

 48 52  0  0  0  0  0  0  0  0999 V2000
  -25.1656   62.7790  -23.1634 C   0  0  0  0  0  0  0  0  0  0  0  0
  -23.9330   64.2272  -24.7360 C   0  0  0  0  0  0  0  0  0  0  0  0
  -22.6306   63.8545  -25.4404 C   0  0  0  0  0  0  0  0  0  0  0  0
  -23.7190   65.5227  -26.8598 C   0  0  0  0  0  0  0  0  0  0  0  0
  -24.5598   65.2644  -25.6433 C   0  0  0  0  0  0  0  0  0  0  0  0
  -26.0011   65.7115  -25.5389 C   0  0  0  0  0  0  0  0  0  0  0  0
  -24.8945   66.5392  -24.9038 C   0  0  0  0  0  0  0  0  0  0  0  0
  -21.5044   64.5752  -27.6242 C   0  0  0  0  0  0  0  0  0  0  0  0
  -20.6025   63.4048  -27.7286 C   0  0  0  0  0  0  0  0  0  0  0  0
  -20.9632   62.1571  -27.1972 C   0  0  0  0  0  0  0  0  0  0  0  0
  -20.1137   61.0552  -27.3291 C   0  0  0  0  0  0  0  0  0  0  0  0
  -18.8966   61.1888  -28.0014 C   0  0  0  0  0  0  0  0  0  0  0  0
  -18.5309   62.4234  -28.5439 C   0  0  0  0  0  0  0  0  0  0  0  0
  -19.3823   63.5244  -28.4116 C   0  0  0  0  0  0  0  0  0  0  0  0
  -17.2829   62.5609  -29.2397 C   0  0  0  0  0  0  0  0  0  0  0  0
  -25.2509   62.2211  -25.6366 C   0  0  0  0  0  0  0  0  0  0  0  0
  -25.2656   61.7311  -27.9813 C   0  0  0  0  0  0  0  0  0  0  0  0
  -26.4775   60.3662  -26.5261 C   0  0  0  0  0  0  0  0  0  0  0  0
  -26.0903   61.1107  -25.4547 C   0  0  0  0  0  0  0  0  0  0  0  0
  -26.6682   60.5482  -24.3370 C   0  0  0  0  0  0  0  0  0  0  0  0
  -27.3917   59.4606  -24.8307 C   0  0  0  0  0  0  0  0  0  0  0  0
  -24.7963   63.0582  -24.5427 N   0  0  0  0  0  0  0  0  0  0  0  0
  -22.5907   64.6227  -26.6846 N   0  0  0  0  0  0  0  0  0  0  0  0
  -16.2768   62.6717  -29.8007 N   0  0  0  0  0  0  0  0  0  0  0  0
  -24.8633   62.4950  -26.9200 N   0  0  0  0  0  0  0  0  0  0  0  0
  -26.0805   60.6552  -27.7877 N   0  0  0  0  0  0  0  0  0  0  0  0
  -27.2746   59.3485  -26.1764 N   0  0  0  0  0  0  0  0  0  0  0  0
  -21.3209   65.5562  -28.3962 O   0  0  0  0  0  0  0  0  0  0  0  0
  -24.4744   63.3016  -22.4858 H   0  0  0  0  0  0  0  0  0  0  0  0
  -26.1925   63.1286  -22.9808 H   0  0  0  0  0  0  0  0  0  0  0  0
  -25.1092   61.6957  -22.9808 H   0  0  0  0  0  0  0  0  0  0  0  0
  -23.7691   64.6168  -23.7205 H   0  0  0  0  0  0  0  0  0  0  0  0
  -21.7694   64.1138  -24.8070 H   0  0  0  0  0  0  0  0  0  0  0  0
  -22.5845   62.7739  -25.6410 H   0  0  0  0  0  0  0  0  0  0  0  0
  -23.3857   66.5705  -26.8931 H   0  0  0  0  0  0  0  0  0  0  0  0
  -24.2617   65.3539  -27.8016 H   0  0  0  0  0  0  0  0  0  0  0  0
  -26.5273   66.0863  -26.4292 H   0  0  0  0  0  0  0  0  0  0  0  0
  -26.9350   65.2536  -25.1809 H   0  0  0  0  0  0  0  0  0  0  0  0
  -24.6198   67.5135  -25.3342 H   0  0  0  0  0  0  0  0  0  0  0  0
  -24.6952   66.9294  -23.8948 H   0  0  0  0  0  0  0  0  0  0  0  0
  -21.9233   62.0453  -26.6721 H   0  0  0  0  0  0  0  0  0  0  0  0
  -20.4034   60.0831  -26.9036 H   0  0  0  0  0  0  0  0  0  0  0  0
  -18.2264   60.3225  -28.1037 H   0  0  0  0  0  0  0  0  0  0  0  0
  -19.0934   64.4926  -28.8465 H   0  0  0  0  0  0  0  0  0  0  0  0
  -24.9296   61.9865  -28.9971 H   0  0  0  0  0  0  0  0  0  0  0  0
  -26.5796   60.8808  -23.2922 H   0  0  0  0  0  0  0  0  0  0  0  0
  -27.9844   58.7781  -24.2039 H   0  0  0  0  0  0  0  0  0  0  0  0
  -27.7019   58.6409  -26.7909 H   0  0  0  0  0  0  0  0  0  0  0  0
  1 22  1  0
  2 22  1  0
  2  3  1  0
  3 23  1  0
  4 23  1  0
  4  5  1  0
  5  6  1  0
  5  2  1  0
  6  7  1  0
  7  5  1  0
  8  9  1  0
 10 11  2  0
 12 13  2  0
 13 15  1  0
 14  9  2  0
 17 25  2  0
 18 26  2  0
 19 20  1  0
 19 16  2  0
 21 27  1  0
 22 16  1  0
 23  8  1  0
 27 18  1  0
  8 28  2  0
  9 10  1  0
 11 12  1  0
 13 14  1  0
 16 25  1  0
 17 26  1  0
 18 19  1  0
 20 21  2  0
 15 24  3  0
  1 29  1  0
  1 30  1  0
  1 31  1  0
  2 32  1  0
  3 33  1  0
  3 34  1  0
  4 35  1  0
  4 36  1  0
  6 37  1  0
  6 38  1  0
  7 39  1  0
  7 40  1  0
 10 41  1  0
 11 42  1  0
 12 43  1  0
 14 44  1  0
 17 45  1  0
 20 46  1  0
 21 47  1  0
 27 48  1  0
M  END
>  <rmsd>  (2) 
0.590329766

$$$$
CHEMBL4290647
     RDKit          3D

 47 51  0  0  0  0  0  0  0  0999 V2000
  -25.1609   62.7777  -23.1624 C   0  0  0  0  0  0  0  0  0  0  0  0
  -23.9305   64.2260  -24.7365 C   0  0  0  0  0  0  0  0  0  0  0  0
  -22.6290   63.8524  -25.4421 C   0  0  0  0  0  0  0  0  0  0  0  0
  -23.7175   65.5214  -26.8605 C   0  0  0  0  0  0  0  0  0  0  0  0
  -24.5575   65.2636  -25.6432 C   0  0  0  0  0  0  0  0  0  0  0  0
  -24.8905   66.5385  -24.9035 C   0  0  0  0  0  0  0  0  0  0  0  0
  -25.9984   65.7115  -25.5376 C   0  0  0  0  0  0  0  0  0  0  0  0
  -21.5031   64.5744  -27.6258 C   0  0  0  0  0  0  0  0  0  0  0  0
  -20.5997   63.4049  -27.7299 C   0  0  0  0  0  0  0  0  0  0  0  0
  -19.3792   63.5258  -28.4123 C   0  0  0  0  0  0  0  0  0  0  0  0
  -18.5269   62.4256  -28.5445 C   0  0  0  0  0  0  0  0  0  0  0  0
  -18.8908   61.1911  -28.0013 C   0  0  0  0  0  0  0  0  0  0  0  0
  -20.1080   61.0561  -27.3294 C   0  0  0  0  0  0  0  0  0  0  0  0
  -20.9591   62.1570  -27.1982 C   0  0  0  0  0  0  0  0  0  0  0  0
  -25.2521   62.2216  -25.6358 C   0  0  0  0  0  0  0  0  0  0  0  0
  -25.2683   61.7303  -27.9801 C   0  0  0  0  0  0  0  0  0  0  0  0
  -26.4867   60.3718  -26.5245 C   0  0  0  0  0  0  0  0  0  0  0  0
  -26.0967   61.1152  -25.4534 C   0  0  0  0  0  0  0  0  0  0  0  0
  -26.6776   60.5561  -24.3356 C   0  0  0  0  0  0  0  0  0  0  0  0
  -27.4060   59.4716  -24.8290 C   0  0  0  0  0  0  0  0  0  0  0  0
  -24.7944   63.0576  -24.5422 N   0  0  0  0  0  0  0  0  0  0  0  0
  -22.5894   64.6209  -26.6861 N   0  0  0  0  0  0  0  0  0  0  0  0
  -24.8628   62.4930  -26.9192 N   0  0  0  0  0  0  0  0  0  0  0  0
  -26.0881   60.6582  -27.7861 N   0  0  0  0  0  0  0  0  0  0  0  0
  -27.2888   59.3580  -26.1745 N   0  0  0  0  0  0  0  0  0  0  0  0
  -21.3207   65.5553  -28.3980 O   0  0  0  0  0  0  0  0  0  0  0  0
  -24.4716   63.3042  -22.4859 H   0  0  0  0  0  0  0  0  0  0  0  0
  -26.1893   63.1224  -22.9790 H   0  0  0  0  0  0  0  0  0  0  0  0
  -25.0990   61.6949  -22.9790 H   0  0  0  0  0  0  0  0  0  0  0  0
  -23.7653   64.6156  -23.7212 H   0  0  0  0  0  0  0  0  0  0  0  0
  -21.7671   64.1108  -24.8093 H   0  0  0  0  0  0  0  0  0  0  0  0
  -22.5841   62.7718  -25.6431 H   0  0  0  0  0  0  0  0  0  0  0  0
  -23.3838   66.5690  -26.8942 H   0  0  0  0  0  0  0  0  0  0  0  0
  -24.2610   65.3527  -27.8018 H   0  0  0  0  0  0  0  0  0  0  0  0
  -24.7932   66.5811  -23.8086 H   0  0  0  0  0  0  0  0  0  0  0  0
  -24.5644   67.5868  -24.9726 H   0  0  0  0  0  0  0  0  0  0  0  0
  -26.7029   65.1550  -24.9019 H   0  0  0  0  0  0  0  0  0  0  0  0
  -26.8068   65.9121  -26.2561 H   0  0  0  0  0  0  0  0  0  0  0  0
  -19.0909   64.4944  -28.8467 H   0  0  0  0  0  0  0  0  0  0  0  0
  -17.5698   62.5320  -29.0762 H   0  0  0  0  0  0  0  0  0  0  0  0
  -18.2192   60.3258  -28.1026 H   0  0  0  0  0  0  0  0  0  0  0  0
  -20.3966   60.0837  -26.9037 H   0  0  0  0  0  0  0  0  0  0  0  0
  -21.9193   62.0442  -26.6734 H   0  0  0  0  0  0  0  0  0  0  0  0
  -24.9309   61.9836  -28.9960 H   0  0  0  0  0  0  0  0  0  0  0  0
  -26.5878   60.8889  -23.2910 H   0  0  0  0  0  0  0  0  0  0  0  0
  -28.0022   58.7923  -24.2020 H   0  0  0  0  0  0  0  0  0  0  0  0
  -27.7191   58.6519  -26.7887 H   0  0  0  0  0  0  0  0  0  0  0  0
  1 21  1  0
  2 21  1  0
  2  3  1  0
  3 22  1  0
  4 22  1  0
  4  5  1  0
  5  6  1  0
  5  2  1  0
  6  7  1  0
  7  5  1  0
  8  9  1  0
 10 11  2  0
 12 13  2  0
 14  9  2  0
 16 23  2  0
 17 24  2  0
 18 19  1  0
 18 15  2  0
 20 25  1  0
 21 15  1  0
 22  8  1  0
 25 17  1  0
  8 26  2  0
  9 10  1  0
 11 12  1  0
 13 14  1  0
 15 23  1  0
 16 24  1  0
 17 18  1  0
 19 20  2  0
  1 27  1  0
  1 28  1  0
  1 29  1  0
  2 30  1  0
  3 31  1  0
  3 32  1  0
  4 33  1  0
  4 34  1  0
  6 35  1  0
  6 36  1  0
  7 37  1  0
  7 38  1  0
 10 39  1  0
 11 40  1  0
 12 41  1  0
 13 42  1  0
 14 43  1  0
 16 44  1  0
 19 45  1  0
 20 46  1  0
 25 47  1  0
M  END
>  <rmsd>  (3) 
0.594331205

$$$$
CHEMBL4292627
     RDKit          3D

 48 52  0  0  0  0  0  0  0  0999 V2000
  -25.1773   62.7696  -23.1602 C   0  0  0  0  0  0  0  0  0  0  0  0
  -23.9346   64.2201  -24.7227 C   0  0  0  0  0  0  0  0  0  0  0  0
  -22.6311   63.8506  -25.4267 C   0  0  0  0  0  0  0  0  0  0  0  0
  -23.7168   65.5257  -26.8400 C   0  0  0  0  0  0  0  0  0  0  0  0
  -24.5598   65.2618  -25.6261 C   0  0  0  0  0  0  0  0  0  0  0  0
  -24.8958   66.5330  -24.8812 C   0  0  0  0  0  0  0  0  0  0  0  0
  -26.0013   65.7083  -25.5222 C   0  0  0  0  0  0  0  0  0  0  0  0
  -21.5029   64.5788  -27.6070 C   0  0  0  0  0  0  0  0  0  0  0  0
  -20.6064   63.4050  -27.7189 C   0  0  0  0  0  0  0  0  0  0  0  0
  -19.3853   63.5233  -28.4007 C   0  0  0  0  0  0  0  0  0  0  0  0
  -18.5395   62.4190  -28.5402 C   0  0  0  0  0  0  0  0  0  0  0  0
  -18.9105   61.1830  -28.0048 C   0  0  0  0  0  0  0  0  0  0  0  0
  -20.1291   61.0506  -27.3347 C   0  0  0  0  0  0  0  0  0  0  0  0
  -20.9736   62.1556  -27.1962 C   0  0  0  0  0  0  0  0  0  0  0  0
  -18.0424   60.0487  -28.1474 C   0  0  0  0  0  0  0  0  0  0  0  0
  -25.2444   62.2137  -25.6345 C   0  0  0  0  0  0  0  0  0  0  0  0
  -25.2642   61.7419  -27.9827 C   0  0  0  0  0  0  0  0  0  0  0  0
  -26.4412   60.3431  -26.5313 C   0  0  0  0  0  0  0  0  0  0  0  0
  -26.0617   61.0863  -25.4564 C   0  0  0  0  0  0  0  0  0  0  0  0
  -26.6203   60.5030  -24.3394 C   0  0  0  0  0  0  0  0  0  0  0  0
  -27.3257   59.4056  -24.8375 C   0  0  0  0  0  0  0  0  0  0  0  0
  -24.7982   63.0500  -24.5365 N   0  0  0  0  0  0  0  0  0  0  0  0
  -22.5894   64.6243  -26.6676 N   0  0  0  0  0  0  0  0  0  0  0  0
  -17.3425   59.1341  -28.2624 N   0  0  0  0  0  0  0  0  0  0  0  0
  -24.8696   62.5047  -26.9179 N   0  0  0  0  0  0  0  0  0  0  0  0
  -26.0575   60.6494  -27.7929 N   0  0  0  0  0  0  0  0  0  0  0  0
  -27.2159   59.3069  -26.1849 N   0  0  0  0  0  0  0  0  0  0  0  0
  -21.3151   65.5641  -28.3723 O   0  0  0  0  0  0  0  0  0  0  0  0
  -24.4841   63.2824  -22.4772 H   0  0  0  0  0  0  0  0  0  0  0  0
  -26.2013   63.1293  -22.9814 H   0  0  0  0  0  0  0  0  0  0  0  0
  -25.1332   61.6851  -22.9814 H   0  0  0  0  0  0  0  0  0  0  0  0
  -23.7725   64.6050  -23.7051 H   0  0  0  0  0  0  0  0  0  0  0  0
  -21.7709   64.1072  -24.7909 H   0  0  0  0  0  0  0  0  0  0  0  0
  -22.5846   62.7709  -25.6319 H   0  0  0  0  0  0  0  0  0  0  0  0
  -23.3828   66.5734  -26.8675 H   0  0  0  0  0  0  0  0  0  0  0  0
  -24.2581   65.3619  -27.7835 H   0  0  0  0  0  0  0  0  0  0  0  0
  -24.8016   66.5704  -23.7859 H   0  0  0  0  0  0  0  0  0  0  0  0
  -24.5702   67.5818  -24.9444 H   0  0  0  0  0  0  0  0  0  0  0  0
  -26.7071   65.1483  -24.8911 H   0  0  0  0  0  0  0  0  0  0  0  0
  -26.8078   65.9118  -26.2420 H   0  0  0  0  0  0  0  0  0  0  0  0
  -19.0914   64.4930  -28.8288 H   0  0  0  0  0  0  0  0  0  0  0  0
  -17.5819   62.5232  -29.0715 H   0  0  0  0  0  0  0  0  0  0  0  0
  -20.4239   60.0770  -26.9162 H   0  0  0  0  0  0  0  0  0  0  0  0
  -21.9347   62.0449  -26.6728 H   0  0  0  0  0  0  0  0  0  0  0  0
  -24.9394   62.0117  -28.9985 H   0  0  0  0  0  0  0  0  0  0  0  0
  -26.5307   60.8284  -23.2924 H   0  0  0  0  0  0  0  0  0  0  0  0
  -27.9005   58.7063  -24.2125 H   0  0  0  0  0  0  0  0  0  0  0  0
  -27.6336   58.5962  -26.8024 H   0  0  0  0  0  0  0  0  0  0  0  0
  1 22  1  0
  2 22  1  0
  2  3  1  0
  3 23  1  0
  4 23  1  0
  4  5  1  0
  5  6  1  0
  5  2  1  0
  6  7  1  0
  7  5  1  0
  8  9  1  0
 10 11  2  0
 12 13  2  0
 12 15  1  0
 14  9  2  0
 17 25  2  0
 18 26  2  0
 19 20  1  0
 19 16  2  0
 21 27  1  0
 22 16  1  0
 23  8  1  0
 27 18  1  0
  8 28  2  0
  9 10  1  0
 11 12  1  0
 13 14  1  0
 16 25  1  0
 17 26  1  0
 18 19  1  0
 20 21  2  0
 15 24  3  0
  1 29  1  0
  1 30  1  0
  1 31  1  0
  2 32  1  0
  3 33  1  0
  3 34  1  0
  4 35  1  0
  4 36  1  0
  6 37  1  0
  6 38  1  0
  7 39  1  0
  7 40  1  0
 10 41  1  0
 11 42  1  0
 13 43  1  0
 14 44  1  0
 17 45  1  0
 20 46  1  0
 21 47  1  0
 27 48  1  0
M  END
>  <rmsd>  (4) 
0.578193605

$$$$
CHEMBL1630793
     RDKit          3D

 63 67  0  0  0  0  0  0  0  0999 V2000
  -24.3190   60.5577  -26.0801 N   0  0  0  0  0  0  0  0  0  0  0  0
  -24.9363   62.6894  -26.9148 N   0  0  0  0  0  0  0  0  0  0  0  0
  -26.9148   62.7411  -28.2625 N   0  0  0  0  0  0  0  0  0  0  0  0
  -25.5646   58.5224  -26.5676 N   0  0  0  0  0  0  0  0  0  0  0  0
  -24.8709   56.4923  -28.8124 N   0  0  0  0  0  0  0  0  0  0  0  0
  -20.7705   58.8980  -29.2175 N   0  0  0  0  0  0  0  0  0  0  0  0
  -24.0946   61.9038  -26.1850 C   0  0  0  0  0  0  0  0  0  0  0  0
  -25.9934   62.1061  -27.5282 C   0  0  0  0  0  0  0  0  0  0  0  0
  -27.7718   61.7641  -28.6471 C   0  0  0  0  0  0  0  0  0  0  0  0
  -27.3893   60.5162  -28.1525 C   0  0  0  0  0  0  0  0  0  0  0  0
  -26.2374   60.7710  -27.4403 C   0  0  0  0  0  0  0  0  0  0  0  0
  -25.3770   59.9485  -26.6988 C   0  0  0  0  0  0  0  0  0  0  0  0
  -26.4599   57.7843  -27.4710 C   0  0  0  0  0  0  0  0  0  0  0  0
  -25.8208   57.5980  -28.8497 C   0  0  0  0  0  0  0  0  0  0  0  0
  -25.3632   55.1915  -28.3743 C   0  0  0  0  0  0  0  0  0  0  0  0
  -25.9547   55.3185  -26.9720 C   0  0  0  0  0  0  0  0  0  0  0  0
  -26.9837   56.4560  -26.8832 C   0  0  0  0  0  0  0  0  0  0  0  0
  -28.2838   56.0530  -27.5572 C   0  0  0  0  0  0  0  0  0  0  0  0
  -23.4852   56.6915  -29.1308 C   0  0  0  0  0  0  0  0  0  0  0  0
  -22.9932   58.0478  -29.5477 C   0  0  0  0  0  0  0  0  0  0  0  0
  -22.2183   57.9758  -30.8703 C   0  0  0  0  0  0  0  0  0  0  0  0
  -20.8122   58.5476  -30.6203 C   0  0  0  0  0  0  0  0  0  0  0  0
  -21.9977   58.5824  -28.5971 C   0  0  0  0  0  0  0  0  0  0  0  0
  -19.6080   59.4771  -28.5581 C   0  0  0  0  0  0  0  0  0  0  0  0
  -19.8869   60.8845  -28.1540 C   0  0  0  0  0  0  0  0  0  0  0  0
  -20.2048   61.1802  -26.8246 C   0  0  0  0  0  0  0  0  0  0  0  0
  -20.5009   62.4939  -26.4517 C   0  0  0  0  0  0  0  0  0  0  0  0
  -20.4831   63.5121  -27.4083 C   0  0  0  0  0  0  0  0  0  0  0  0
  -20.1696   63.2173  -28.7381 C   0  0  0  0  0  0  0  0  0  0  0  0
  -19.8736   61.9044  -29.1112 C   0  0  0  0  0  0  0  0  0  0  0  0
  -24.7497   57.8069  -25.5891 C   0  0  0  0  0  0  0  0  0  0  0  0
  -22.6737   55.7278  -29.0475 O   0  0  0  0  0  0  0  0  0  0  0  0
  -22.2118   58.7510  -27.3671 O   0  0  0  0  0  0  0  0  0  0  0  0
  -26.9619   63.7457  -28.4851 H   0  0  0  0  0  0  0  0  0  0  0  0
  -23.2293   62.3547  -25.6770 H   0  0  0  0  0  0  0  0  0  0  0  0
  -28.6605   61.9339  -29.2728 H   0  0  0  0  0  0  0  0  0  0  0  0
  -27.8929   59.5491  -28.2981 H   0  0  0  0  0  0  0  0  0  0  0  0
  -27.3559   58.4103  -27.5942 H   0  0  0  0  0  0  0  0  0  0  0  0
  -26.6057   57.3795  -29.5888 H   0  0  0  0  0  0  0  0  0  0  0  0
  -25.2912   58.5204  -29.1304 H   0  0  0  0  0  0  0  0  0  0  0  0
  -26.1397   54.8399  -29.0696 H   0  0  0  0  0  0  0  0  0  0  0  0
  -24.5324   54.4707  -28.3586 H   0  0  0  0  0  0  0  0  0  0  0  0
  -26.4481   54.3716  -26.7074 H   0  0  0  0  0  0  0  0  0  0  0  0
  -25.1341   55.5471  -26.2761 H   0  0  0  0  0  0  0  0  0  0  0  0
  -27.1692   56.6324  -25.8134 H   0  0  0  0  0  0  0  0  0  0  0  0
  -29.0372   55.8195  -26.7905 H   0  0  0  0  0  0  0  0  0  0  0  0
  -28.6438   56.8817  -28.1846 H   0  0  0  0  0  0  0  0  0  0  0  0
  -28.1119   55.1660  -28.1846 H   0  0  0  0  0  0  0  0  0  0  0  0
  -23.8969   58.6718  -29.6108 H   0  0  0  0  0  0  0  0  0  0  0  0
  -22.1437   56.9304  -31.2043 H   0  0  0  0  0  0  0  0  0  0  0  0
  -22.7353   58.5522  -31.6516 H   0  0  0  0  0  0  0  0  0  0  0  0
  -20.0458   57.7924  -30.8490 H   0  0  0  0  0  0  0  0  0  0  0  0
  -20.6109   59.4192  -31.2605 H   0  0  0  0  0  0  0  0  0  0  0  0
  -19.3661   58.8844  -27.6636 H   0  0  0  0  0  0  0  0  0  0  0  0
  -18.7596   59.4685  -29.2583 H   0  0  0  0  0  0  0  0  0  0  0  0
  -20.2218   60.3781  -26.0720 H   0  0  0  0  0  0  0  0  0  0  0  0
  -20.7479   62.7264  -25.4053 H   0  0  0  0  0  0  0  0  0  0  0  0
  -20.7159   64.5463  -27.1147 H   0  0  0  0  0  0  0  0  0  0  0  0
  -20.1560   64.0193  -29.4908 H   0  0  0  0  0  0  0  0  0  0  0  0
  -19.6299   61.6722  -30.1584 H   0  0  0  0  0  0  0  0  0  0  0  0
  -25.0672   58.0857  -24.5735 H   0  0  0  0  0  0  0  0  0  0  0  0
  -24.8767   56.7232  -25.7285 H   0  0  0  0  0  0  0  0  0  0  0  0
  -23.6915   58.0730  -25.7285 H   0  0  0  0  0  0  0  0  0  0  0  0
  3  9  1  0
  5 19  1  0
  6 23  1  0
  7  2  2  0
  8  3  1  0
 10 11  1  0
 11  8  2  0
 12  4  1  0
 12  1  2  0
 13  4  1  0
 13 14  1  0
 14  5  1  0
 15  5  1  0
 15 16  1  0
 16 17  1  0
 17 18  1  0
 17 13  1  0
 20 19  1  0
 20 21  1  0
 20 23  1  0
 21 22  1  0
 22  6  1  0
 24  6  1  0
 24 25  1  0
 26 27  2  0
 28 29  2  0
 30 25  2  0
 31  4  1  0
  7  1  1  0
  8  2  1  0
  9 10  2  0
 11 12  1  0
 19 32  2  0
 23 33  2  0
 25 26  1  0
 27 28  1  0
 29 30  1  0
  3 34  1  0
  7 35  1  0
  9 36  1  0
 10 37  1  0
 13 38  1  0
 14 39  1  0
 14 40  1  0
 15 41  1  0
 15 42  1  0
 16 43  1  0
 16 44  1  0
 17 45  1  0
 18 46  1  0
 18 47  1  0
 18 48  1  0
 20 49  1  0
 21 50  1  0
 21 51  1  0
 22 52  1  0
 22 53  1  0
 24 54  1  0
 24 55  1  0
 26 56  1  0
 27 57  1  0
 28 58  1  0
 29 59  1  0
 30 60  1  0
 31 61  1  0
 31 62  1  0
 31 63  1  0
M  END
>  <rmsd>  (5) 
0.180277705

$$$$
CHEMBL1630796
     RDKit          3D

 46 49  0  0  0  0  0  0  0  0999 V2000
  -25.1068   62.6926  -26.8833 N   0  0  0  0  0  0  0  0  0  0  0  0
  -24.7864   60.6273  -28.0099 N   0  0  0  0  0  0  0  0  0  0  0  0
  -23.3986   59.0377  -26.8766 N   0  0  0  0  0  0  0  0  0  0  0  0
  -24.0932   63.1813  -24.7198 N   0  0  0  0  0  0  0  0  0  0  0  0
  -22.8811   64.9633  -27.1207 N   0  0  0  0  0  0  0  0  0  0  0  0
  -25.3408   61.8739  -27.9568 C   0  0  0  0  0  0  0  0  0  0  0  0
  -24.0113   60.2241  -26.9759 C   0  0  0  0  0  0  0  0  0  0  0  0
  -22.7493   59.0943  -25.6862 C   0  0  0  0  0  0  0  0  0  0  0  0
  -22.9542   60.3168  -25.0396 C   0  0  0  0  0  0  0  0  0  0  0  0
  -23.7725   61.0158  -25.8983 C   0  0  0  0  0  0  0  0  0  0  0  0
  -24.3235   62.2998  -25.8362 C   0  0  0  0  0  0  0  0  0  0  0  0
  -23.8015   64.6094  -24.8729 C   0  0  0  0  0  0  0  0  0  0  0  0
  -22.5410   64.8695  -25.7059 C   0  0  0  0  0  0  0  0  0  0  0  0
  -23.8782   65.9639  -27.4813 C   0  0  0  0  0  0  0  0  0  0  0  0
  -25.1968   65.6246  -26.7936 C   0  0  0  0  0  0  0  0  0  0  0  0
  -25.0261   65.4543  -25.2776 C   0  0  0  0  0  0  0  0  0  0  0  0
  -24.9667   66.8126  -24.6010 C   0  0  0  0  0  0  0  0  0  0  0  0
  -22.3235   64.1037  -28.1381 C   0  0  0  0  0  0  0  0  0  0  0  0
  -21.3710   63.0021  -27.8469 C   0  0  0  0  0  0  0  0  0  0  0  0
  -20.8443   62.7277  -26.5872 C   0  0  0  0  0  0  0  0  0  0  0  0
  -20.0772   61.1246  -28.4145 C   0  0  0  0  0  0  0  0  0  0  0  0
  -20.9433   62.1161  -28.8535 C   0  0  0  0  0  0  0  0  0  0  0  0
  -24.0347   62.6477  -23.3678 C   0  0  0  0  0  0  0  0  0  0  0  0
  -22.6730   64.2812  -29.3379 O   0  0  0  0  0  0  0  0  0  0  0  0
  -19.8619   61.3819  -26.7700 S   0  0  0  0  0  0  0  0  0  0  0  0
  -23.4161   58.2590  -27.5506 H   0  0  0  0  0  0  0  0  0  0  0  0
  -25.9796   62.2233  -28.7813 H   0  0  0  0  0  0  0  0  0  0  0  0
  -22.1359   58.2770  -25.2792 H   0  0  0  0  0  0  0  0  0  0  0  0
  -22.5540   60.6446  -24.0688 H   0  0  0  0  0  0  0  0  0  0  0  0
  -23.5559   64.9780  -23.8660 H   0  0  0  0  0  0  0  0  0  0  0  0
  -22.0789   65.8131  -25.3802 H   0  0  0  0  0  0  0  0  0  0  0  0
  -21.8376   64.0363  -25.5610 H   0  0  0  0  0  0  0  0  0  0  0  0
  -23.5376   66.9577  -27.1550 H   0  0  0  0  0  0  0  0  0  0  0  0
  -24.0198   65.9698  -28.5721 H   0  0  0  0  0  0  0  0  0  0  0  0
  -25.9148   66.4366  -26.9814 H   0  0  0  0  0  0  0  0  0  0  0  0
  -25.5593   64.6708  -27.2045 H   0  0  0  0  0  0  0  0  0  0  0  0
  -25.9094   64.8949  -24.9357 H   0  0  0  0  0  0  0  0  0  0  0  0
  -24.9725   66.6789  -23.5092 H   0  0  0  0  0  0  0  0  0  0  0  0
  -24.0450   67.3321  -24.9019 H   0  0  0  0  0  0  0  0  0  0  0  0
  -25.8396   67.4106  -24.9019 H   0  0  0  0  0  0  0  0  0  0  0  0
  -21.0350   63.2835  -25.6573 H   0  0  0  0  0  0  0  0  0  0  0  0
  -19.6226   60.3289  -29.0229 H   0  0  0  0  0  0  0  0  0  0  0  0
  -21.2684   62.2024  -29.9008 H   0  0  0  0  0  0  0  0  0  0  0  0
  -24.1250   63.4714  -22.6443 H   0  0  0  0  0  0  0  0  0  0  0  0
  -24.8602   61.9362  -23.2184 H   0  0  0  0  0  0  0  0  0  0  0  0
  -23.0746   62.1320  -23.2184 H   0  0  0  0  0  0  0  0  0  0  0  0
  3  8  1  0
  5 18  1  0
  6  2  2  0
  7  3  1  0
  9 10  1  0
 10  7  2  0
 11  4  1  0
 11  1  2  0
 12  4  1  0
 12 13  1  0
 13  5  1  0
 14  5  1  0
 14 15  1  0
 15 16  1  0
 16 17  1  0
 16 12  1  0
 18 19  1  0
 20 25  1  0
 21 25  1  0
 22 19  1  0
 23  4  1  0
  6  1  1  0
  7  2  1  0
  8  9  2  0
 10 11  1  0
 18 24  2  0
 19 20  2  0
 21 22  2  0
  3 26  1  0
  6 27  1  0
  8 28  1  0
  9 29  1  0
 12 30  1  0
 13 31  1  0
 13 32  1  0
 14 33  1  0
 14 34  1  0
 15 35  1  0
 15 36  1  0
 16 37  1  0
 17 38  1  0
 17 39  1  0
 17 40  1  0
 20 41  1  0
 21 42  1  0
 22 43  1  0
 23 44  1  0
 23 45  1  0
 23 46  1  0
M  END
>  <rmsd>  (6) 
0.296290427

$$$$
CHEMBL3693610
     RDKit          3D

 48 52  0  0  0  0  0  0  0  0999 V2000
  -20.1081   65.7557  -27.8317 O   0  0  0  0  0  0  0  0  0  0  0  0
  -20.7190   64.8918  -28.5173 C   0  0  0  0  0  0  0  0  0  0  0  0
  -21.2795   66.6108  -30.2669 C   0  0  0  0  0  0  0  0  0  0  0  0
  -22.3605   66.7652  -31.3189 C   0  0  0  0  0  0  0  0  0  0  0  0
  -23.4018   65.6988  -31.0185 C   0  0  0  0  0  0  0  0  0  0  0  0
  -22.7145   64.6717  -30.1398 C   0  0  0  0  0  0  0  0  0  0  0  0
  -22.4248   63.4113  -30.9468 C   0  0  0  0  0  0  0  0  0  0  0  0
  -23.1063   62.2628  -30.2239 C   0  0  0  0  0  0  0  0  0  0  0  0
  -23.6293   64.2800  -28.9914 C   0  0  0  0  0  0  0  0  0  0  0  0
  -24.2987   62.0732  -27.9694 C   0  0  0  0  0  0  0  0  0  0  0  0
  -25.4037   62.0279  -25.8497 C   0  0  0  0  0  0  0  0  0  0  0  0
  -24.7116   60.0194  -26.8210 C   0  0  0  0  0  0  0  0  0  0  0  0
  -23.8843   58.5215  -28.0864 C   0  0  0  0  0  0  0  0  0  0  0  0
  -23.6631   59.7353  -28.7416 C   0  0  0  0  0  0  0  0  0  0  0  0
  -24.2103   60.6778  -27.8995 C   0  0  0  0  0  0  0  0  0  0  0  0
  -20.6445   63.4844  -28.1047 C   0  0  0  0  0  0  0  0  0  0  0  0
  -20.1309   62.5166  -28.9769 C   0  0  0  0  0  0  0  0  0  0  0  0
  -20.0682   61.1769  -28.5819 C   0  0  0  0  0  0  0  0  0  0  0  0
  -20.5164   60.8012  -27.3123 C   0  0  0  0  0  0  0  0  0  0  0  0
  -21.0191   61.7659  -26.4343 C   0  0  0  0  0  0  0  0  0  0  0  0
  -21.0751   63.1068  -26.8267 C   0  0  0  0  0  0  0  0  0  0  0  0
  -21.4972   61.3773  -25.1383 C   0  0  0  0  0  0  0  0  0  0  0  0
  -21.4850   65.3060  -29.6666 N   0  0  0  0  0  0  0  0  0  0  0  0
  -23.7503   62.8376  -29.0573 N   0  0  0  0  0  0  0  0  0  0  0  0
  -24.9021   62.7140  -26.9226 N   0  0  0  0  0  0  0  0  0  0  0  0
  -25.3086   60.6679  -25.7928 N   0  0  0  0  0  0  0  0  0  0  0  0
  -24.5279   58.6957  -26.9058 N   0  0  0  0  0  0  0  0  0  0  0  0
  -21.8846   61.0634  -24.0940 N   0  0  0  0  0  0  0  0  0  0  0  0
  -21.3719   67.3998  -29.5060 H   0  0  0  0  0  0  0  0  0  0  0  0
  -20.2752   66.6966  -30.7074 H   0  0  0  0  0  0  0  0  0  0  0  0
  -22.8118   67.7665  -31.2576 H   0  0  0  0  0  0  0  0  0  0  0  0
  -21.9511   66.6505  -32.3334 H   0  0  0  0  0  0  0  0  0  0  0  0
  -24.2587   66.1410  -30.4893 H   0  0  0  0  0  0  0  0  0  0  0  0
  -23.7863   65.2426  -31.9426 H   0  0  0  0  0  0  0  0  0  0  0  0
  -22.8295   63.5117  -31.9647 H   0  0  0  0  0  0  0  0  0  0  0  0
  -21.3421   63.2372  -31.0329 H   0  0  0  0  0  0  0  0  0  0  0  0
  -23.8547   61.7919  -30.8783 H   0  0  0  0  0  0  0  0  0  0  0  0
  -22.3820   61.4860  -29.9375 H   0  0  0  0  0  0  0  0  0  0  0  0
  -24.6155   64.7529  -29.1089 H   0  0  0  0  0  0  0  0  0  0  0  0
  -23.2258   64.6085  -28.0223 H   0  0  0  0  0  0  0  0  0  0  0  0
  -25.8868   62.5766  -25.0278 H   0  0  0  0  0  0  0  0  0  0  0  0
  -23.5738   57.5426  -28.4807 H   0  0  0  0  0  0  0  0  0  0  0  0
  -23.1657   59.9005  -29.7087 H   0  0  0  0  0  0  0  0  0  0  0  0
  -19.7758   62.8112  -29.9755 H   0  0  0  0  0  0  0  0  0  0  0  0
  -19.6663   60.4187  -29.2701 H   0  0  0  0  0  0  0  0  0  0  0  0
  -20.4735   59.7462  -27.0040 H   0  0  0  0  0  0  0  0  0  0  0  0
  -21.4583   63.8669  -26.1299 H   0  0  0  0  0  0  0  0  0  0  0  0
  -24.8112   57.9737  -26.2280 H   0  0  0  0  0  0  0  0  0  0  0  0
  2 23  1  0
  2 16  1  0
  3 23  1  0
  3  4  1  0
  4  5  1  0
  5  6  1  0
  6  7  1  0
  6 23  1  0
  7  8  1  0
  8 24  1  0
  9 24  1  0
  9  6  1  0
 11 25  2  0
 12 26  2  0
 12 27  1  0
 14 15  1  0
 15 10  2  0
 17 18  2  0
 19 20  2  0
 20 22  1  0
 21 16  2  0
 24 10  1  0
 27 13  1  0
  2  1  2  0
 10 25  1  0
 11 26  1  0
 13 14  2  0
 15 12  1  0
 16 17  1  0
 18 19  1  0
 20 21  1  0
 22 28  3  0
  3 29  1  0
  3 30  1  0
  4 31  1  0
  4 32  1  0
  5 33  1  0
  5 34  1  0
  7 35  1  0
  7 36  1  0
  8 37  1  0
  8 38  1  0
  9 39  1  0
  9 40  1  0
 11 41  1  0
 13 42  1  0
 14 43  1  0
 17 44  1  0
 18 45  1  0
 19 46  1  0
 21 47  1  0
 27 48  1  0
M  END
>  <rmsd>  (7) 
0.194998249

$$$$
CHEMBL3693611
     RDKit          3D

 48 52  0  0  0  0  0  0  0  0999 V2000
  -18.5066   64.5397  -25.9870 O   0  0  0  0  0  0  0  0  0  0  0  0
  -19.7471   64.3749  -26.1415 C   0  0  0  0  0  0  0  0  0  0  0  0
  -20.3177   66.7040  -25.3876 C   0  0  0  0  0  0  0  0  0  0  0  0
  -21.4338   67.3272  -24.5711 C   0  0  0  0  0  0  0  0  0  0  0  0
  -22.2031   66.1744  -23.9433 C   0  0  0  0  0  0  0  0  0  0  0  0
  -21.8137   64.9283  -24.7155 C   0  0  0  0  0  0  0  0  0  0  0  0
  -21.4695   63.8013  -23.7448 C   0  0  0  0  0  0  0  0  0  0  0  0
  -22.2145   62.5726  -24.2325 C   0  0  0  0  0  0  0  0  0  0  0  0
  -22.9803   64.4486  -25.5588 C   0  0  0  0  0  0  0  0  0  0  0  0
  -23.9488   62.1726  -26.0694 C   0  0  0  0  0  0  0  0  0  0  0  0
  -25.6509   61.9338  -27.7309 C   0  0  0  0  0  0  0  0  0  0  0  0
  -24.6342   60.0220  -26.8520 C   0  0  0  0  0  0  0  0  0  0  0  0
  -23.3975   58.6492  -25.7973 C   0  0  0  0  0  0  0  0  0  0  0  0
  -23.0248   59.9175  -25.3460 C   0  0  0  0  0  0  0  0  0  0  0  0
  -23.8449   60.7768  -26.0428 C   0  0  0  0  0  0  0  0  0  0  0  0
  -20.2230   63.2304  -26.9331 C   0  0  0  0  0  0  0  0  0  0  0  0
  -19.6516   61.9645  -26.7513 C   0  0  0  0  0  0  0  0  0  0  0  0
  -20.1124   60.8716  -27.4917 C   0  0  0  0  0  0  0  0  0  0  0  0
  -21.1377   61.0419  -28.4263 C   0  0  0  0  0  0  0  0  0  0  0  0
  -21.6913   62.3084  -28.6323 C   0  0  0  0  0  0  0  0  0  0  0  0
  -21.2337   63.4005  -27.8887 C   0  0  0  0  0  0  0  0  0  0  0  0
  -21.6263   59.9149  -29.1681 C   0  0  0  0  0  0  0  0  0  0  0  0
  -20.6666   65.3052  -25.5400 N   0  0  0  0  0  0  0  0  0  0  0  0
  -23.1080   63.0315  -25.2802 N   0  0  0  0  0  0  0  0  0  0  0  0
  -24.8630   62.7158  -26.9298 N   0  0  0  0  0  0  0  0  0  0  0  0
  -25.5377   60.5738  -27.6971 N   0  0  0  0  0  0  0  0  0  0  0  0
  -24.3856   58.7127  -26.7236 N   0  0  0  0  0  0  0  0  0  0  0  0
  -22.0208   59.0049  -29.7641 N   0  0  0  0  0  0  0  0  0  0  0  0
  -19.3574   66.8031  -24.8604 H   0  0  0  0  0  0  0  0  0  0  0  0
  -20.2071   67.2001  -26.3631 H   0  0  0  0  0  0  0  0  0  0  0  0
  -21.0152   67.9763  -23.7879 H   0  0  0  0  0  0  0  0  0  0  0  0
  -22.0890   67.9477  -25.2001 H   0  0  0  0  0  0  0  0  0  0  0  0
  -21.9287   66.0664  -22.8836 H   0  0  0  0  0  0  0  0  0  0  0  0
  -23.2884   66.3482  -23.9880 H   0  0  0  0  0  0  0  0  0  0  0  0
  -20.3854   63.6148  -23.7475 H   0  0  0  0  0  0  0  0  0  0  0  0
  -21.7582   64.0599  -22.7153 H   0  0  0  0  0  0  0  0  0  0  0  0
  -21.5071   61.8311  -24.6321 H   0  0  0  0  0  0  0  0  0  0  0  0
  -22.7695   62.0890  -23.4151 H   0  0  0  0  0  0  0  0  0  0  0  0
  -22.7747   64.6127  -26.6269 H   0  0  0  0  0  0  0  0  0  0  0  0
  -23.9052   64.9945  -25.3210 H   0  0  0  0  0  0  0  0  0  0  0  0
  -26.3802   62.4046  -28.4065 H   0  0  0  0  0  0  0  0  0  0  0  0
  -22.9439   57.7116  -25.4437 H   0  0  0  0  0  0  0  0  0  0  0  0
  -22.2533   60.1716  -24.6042 H   0  0  0  0  0  0  0  0  0  0  0  0
  -18.8377   61.8298  -26.0237 H   0  0  0  0  0  0  0  0  0  0  0  0
  -19.6678   59.8772  -27.3386 H   0  0  0  0  0  0  0  0  0  0  0  0
  -22.4869   62.4461  -29.3793 H   0  0  0  0  0  0  0  0  0  0  0  0
  -21.6688   64.3971  -28.0545 H   0  0  0  0  0  0  0  0  0  0  0  0
  -24.8413   57.9314  -27.2164 H   0  0  0  0  0  0  0  0  0  0  0  0
  2 23  1  0
  2 16  1  0
  3 23  1  0
  3  4  1  0
  4  5  1  0
  5  6  1  0
  6  7  1  0
  6 23  1  0
  7  8  1  0
  8 24  1  0
  9 24  1  0
  9  6  1  0
 11 25  2  0
 12 26  2  0
 12 27  1  0
 14 15  1  0
 15 10  2  0
 17 18  2  0
 19 20  2  0
 19 22  1  0
 21 16  2  0
 24 10  1  0
 27 13  1  0
  2  1  2  0
 10 25  1  0
 11 26  1  0
 13 14  2  0
 15 12  1  0
 16 17  1  0
 18 19  1  0
 20 21  1  0
 22 28  3  0
  3 29  1  0
  3 30  1  0
  4 31  1  0
  4 32  1  0
  5 33  1  0
  5 34  1  0
  7 35  1  0
  7 36  1  0
  8 37  1  0
  8 38  1  0
  9 39  1  0
  9 40  1  0
 11 41  1  0
 13 42  1  0
 14 43  1  0
 17 44  1  0
 18 45  1  0
 20 46  1  0
 21 47  1  0
 27 48  1  0
M  END
>  <rmsd>  (8) 
0.265372008

$$$$
CHEMBL4280010
     RDKit          3D

 46 50  0  0  0  0  0  0  0  0999 V2000
  -25.1526   62.7804  -23.1624 C   0  0  0  0  0  0  0  0  0  0  0  0
  -23.9245   64.2250  -24.7416 C   0  0  0  0  0  0  0  0  0  0  0  0
  -22.6251   63.8468  -25.4489 C   0  0  0  0  0  0  0  0  0  0  0  0
  -23.7118   65.5161  -26.8683 C   0  0  0  0  0  0  0  0  0  0  0  0
  -24.5504   65.2625  -25.6492 C   0  0  0  0  0  0  0  0  0  0  0  0
  -24.8790   66.5395  -24.9111 C   0  0  0  0  0  0  0  0  0  0  0  0
  -25.9900   65.7145  -25.5419 C   0  0  0  0  0  0  0  0  0  0  0  0
  -21.5004   64.5635  -27.6355 C   0  0  0  0  0  0  0  0  0  0  0  0
  -20.5940   63.3960  -27.7336 C   0  0  0  0  0  0  0  0  0  0  0  0
  -19.3812   63.5054  -28.4280 C   0  0  0  0  0  0  0  0  0  0  0  0
  -18.8743   61.2242  -28.0093 C   0  0  0  0  0  0  0  0  0  0  0  0
  -20.0756   61.0625  -27.3182 C   0  0  0  0  0  0  0  0  0  0  0  0
  -20.9360   62.1529  -27.1860 C   0  0  0  0  0  0  0  0  0  0  0  0
  -25.2556   62.2243  -25.6352 C   0  0  0  0  0  0  0  0  0  0  0  0
  -25.2736   61.7259  -27.9779 C   0  0  0  0  0  0  0  0  0  0  0  0
  -26.5082   60.3847  -26.5198 C   0  0  0  0  0  0  0  0  0  0  0  0
  -26.1119   61.1274  -25.4505 C   0  0  0  0  0  0  0  0  0  0  0  0
  -26.7011   60.5787  -24.3319 C   0  0  0  0  0  0  0  0  0  0  0  0
  -27.4401   59.5004  -24.8229 C   0  0  0  0  0  0  0  0  0  0  0  0
  -24.7911   63.0592  -24.5438 N   0  0  0  0  0  0  0  0  0  0  0  0
  -22.5851   64.6137  -26.6940 N   0  0  0  0  0  0  0  0  0  0  0  0
  -18.5548   62.4315  -28.5470 N   0  0  0  0  0  0  0  0  0  0  0  0
  -24.8618   62.4876  -26.9189 N   0  0  0  0  0  0  0  0  0  0  0  0
  -26.1048   60.6629  -27.7818 N   0  0  0  0  0  0  0  0  0  0  0  0
  -27.3219   59.3809  -26.1678 N   0  0  0  0  0  0  0  0  0  0  0  0
  -21.3218   65.5396  -28.4146 O   0  0  0  0  0  0  0  0  0  0  0  0
  -24.4640   63.3115  -22.4888 H   0  0  0  0  0  0  0  0  0  0  0  0
  -26.1821   63.1207  -22.9770 H   0  0  0  0  0  0  0  0  0  0  0  0
  -25.0851   61.6982  -22.9770 H   0  0  0  0  0  0  0  0  0  0  0  0
  -23.7565   64.6159  -23.7272 H   0  0  0  0  0  0  0  0  0  0  0  0
  -21.7615   64.1034  -24.8178 H   0  0  0  0  0  0  0  0  0  0  0  0
  -22.5837   62.7659  -25.6487 H   0  0  0  0  0  0  0  0  0  0  0  0
  -23.3760   66.5630  -26.9046 H   0  0  0  0  0  0  0  0  0  0  0  0
  -24.2572   65.3465  -27.8084 H   0  0  0  0  0  0  0  0  0  0  0  0
  -24.7799   66.5836  -23.8165 H   0  0  0  0  0  0  0  0  0  0  0  0
  -24.5503   67.5868  -24.9825 H   0  0  0  0  0  0  0  0  0  0  0  0
  -26.6949   65.1610  -24.9041 H   0  0  0  0  0  0  0  0  0  0  0  0
  -26.7990   65.9161  -26.2594 H   0  0  0  0  0  0  0  0  0  0  0  0
  -19.0957   64.4667  -28.8800 H   0  0  0  0  0  0  0  0  0  0  0  0
  -18.1850   60.3741  -28.1192 H   0  0  0  0  0  0  0  0  0  0  0  0
  -20.3410   60.0877  -26.8831 H   0  0  0  0  0  0  0  0  0  0  0  0
  -21.8886   62.0357  -26.6485 H   0  0  0  0  0  0  0  0  0  0  0  0
  -24.9321   61.9725  -28.9940 H   0  0  0  0  0  0  0  0  0  0  0  0
  -26.6099   60.9143  -23.2883 H   0  0  0  0  0  0  0  0  0  0  0  0
  -28.0446   58.8296  -24.1947 H   0  0  0  0  0  0  0  0  0  0  0  0
  -27.7589   58.6775  -26.7803 H   0  0  0  0  0  0  0  0  0  0  0  0
  1 20  1  0
  2 20  1  0
  2  3  1  0
  3 21  1  0
  4 21  1  0
  4  5  1  0
  5  6  1  0
  5  2  1  0
  6  7  1  0
  7  5  1  0
  8  9  1  0
 10 22  2  0
 11 12  2  0
 13  9  2  0
 15 23  2  0
 16 24  2  0
 17 18  1  0
 17 14  2  0
 19 25  1  0
 20 14  1  0
 21  8  1  0
 25 16  1  0
  8 26  2  0
  9 10  1  0
 11 22  1  0
 12 13  1  0
 14 23  1  0
 15 24  1  0
 16 17  1  0
 18 19  2  0
  1 27  1  0
  1 28  1  0
  1 29  1  0
  2 30  1  0
  3 31  1  0
  3 32  1  0
  4 33  1  0
  4 34  1  0
  6 35  1  0
  6 36  1  0
  7 37  1  0
  7 38  1  0
 10 39  1  0
 11 40  1  0
 12 41  1  0
 13 42  1  0
 15 43  1  0
 18 44  1  0
 19 45  1  0
 25 46  1  0
M  END
>  <rmsd>  (9) 
0.602706969

$$$$
CHEMBL3718794
     RDKit          3D

 45 48  0  0  0  0  0  0  0  0999 V2000
  -25.3105   60.3522  -26.6765 N   0  0  0  0  0  0  0  0  0  0  0  0
  -25.1023   62.7076  -26.8849 N   0  0  0  0  0  0  0  0  0  0  0  0
  -23.4639   58.8213  -27.0440 N   0  0  0  0  0  0  0  0  0  0  0  0
  -22.9115   63.5442  -27.3959 N   0  0  0  0  0  0  0  0  0  0  0  0
  -18.4590   58.9469  -27.8045 N   0  0  0  0  0  0  0  0  0  0  0  0
  -25.8630   61.6035  -26.6320 C   0  0  0  0  0  0  0  0  0  0  0  0
  -23.7903   62.5411  -27.1763 C   0  0  0  0  0  0  0  0  0  0  0  0
  -23.2132   61.2929  -27.2220 C   0  0  0  0  0  0  0  0  0  0  0  0
  -23.9922   60.1548  -26.9787 C   0  0  0  0  0  0  0  0  0  0  0  0
  -22.6487   58.3949  -28.1771 C   0  0  0  0  0  0  0  0  0  0  0  0
  -23.4373   57.4353  -29.0650 C   0  0  0  0  0  0  0  0  0  0  0  0
  -24.0577   56.2961  -28.2429 C   0  0  0  0  0  0  0  0  0  0  0  0
  -24.8216   56.7722  -26.9979 C   0  0  0  0  0  0  0  0  0  0  0  0
  -24.0084   57.7777  -26.1800 C   0  0  0  0  0  0  0  0  0  0  0  0
  -26.1888   57.3268  -27.3570 C   0  0  0  0  0  0  0  0  0  0  0  0
  -24.4832   58.1778  -29.8788 C   0  0  0  0  0  0  0  0  0  0  0  0
  -21.8782   61.5206  -27.4684 C   0  0  0  0  0  0  0  0  0  0  0  0
  -21.7417   62.8907  -27.5756 C   0  0  0  0  0  0  0  0  0  0  0  0
  -20.5013   63.4788  -27.8081 C   0  0  0  0  0  0  0  0  0  0  0  0
  -19.3847   62.6333  -27.9266 C   0  0  0  0  0  0  0  0  0  0  0  0
  -19.5162   61.2293  -27.8044 C   0  0  0  0  0  0  0  0  0  0  0  0
  -20.7845   60.6639  -27.5643 C   0  0  0  0  0  0  0  0  0  0  0  0
  -18.3323   60.3611  -27.9250 C   0  0  0  0  0  0  0  0  0  0  0  0
  -17.1954   60.8611  -28.1365 O   0  0  0  0  0  0  0  0  0  0  0  0
  -23.0895   64.5584  -27.4204 H   0  0  0  0  0  0  0  0  0  0  0  0
  -17.6267   58.3461  -27.8900 H   0  0  0  0  0  0  0  0  0  0  0  0
  -19.3829   58.5255  -27.6319 H   0  0  0  0  0  0  0  0  0  0  0  0
  -26.9297   61.7201  -26.3902 H   0  0  0  0  0  0  0  0  0  0  0  0
  -22.3560   59.2767  -28.7659 H   0  0  0  0  0  0  0  0  0  0  0  0
  -21.7529   57.8797  -27.8000 H   0  0  0  0  0  0  0  0  0  0  0  0
  -22.7335   56.9765  -29.7751 H   0  0  0  0  0  0  0  0  0  0  0  0
  -24.7568   55.7440  -28.8883 H   0  0  0  0  0  0  0  0  0  0  0  0
  -23.2266   55.6691  -27.8876 H   0  0  0  0  0  0  0  0  0  0  0  0
  -24.9807   55.8885  -26.3624 H   0  0  0  0  0  0  0  0  0  0  0  0
  -24.6595   58.2385  -25.4226 H   0  0  0  0  0  0  0  0  0  0  0  0
  -23.1753   57.2487  -25.6941 H   0  0  0  0  0  0  0  0  0  0  0  0
  -26.7462   57.5529  -26.4360 H   0  0  0  0  0  0  0  0  0  0  0  0
  -26.0677   58.2469  -27.9475 H   0  0  0  0  0  0  0  0  0  0  0  0
  -26.7429   56.5823  -27.9475 H   0  0  0  0  0  0  0  0  0  0  0  0
  -25.1887   58.6786  -29.1995 H   0  0  0  0  0  0  0  0  0  0  0  0
  -23.9892   58.9286  -30.5131 H   0  0  0  0  0  0  0  0  0  0  0  0
  -25.0291   57.4639  -30.5131 H   0  0  0  0  0  0  0  0  0  0  0  0
  -20.3984   64.5704  -27.8963 H   0  0  0  0  0  0  0  0  0  0  0  0
  -18.3931   63.0696  -28.1173 H   0  0  0  0  0  0  0  0  0  0  0  0
  -20.9072   59.5762  -27.4557 H   0  0  0  0  0  0  0  0  0  0  0  0
  4  7  1  0
  6  2  2  0
  7  8  2  0
  8 17  1  0
  9  3  1  0
  9  1  2  0
 10  3  1  0
 10 11  1  0
 11 12  1  0
 11 16  1  0
 12 13  1  0
 13 14  1  0
 13 15  1  0
 14  3  1  0
 18  4  1  0
 18 19  2  0
 20 21  2  0
 21 23  1  0
 22 17  2  0
 23  5  1  0
  6  1  1  0
  7  2  1  0
  8  9  1  0
 17 18  1  0
 19 20  1  0
 21 22  1  0
 23 24  2  0
  4 25  1  0
  5 26  1  0
  5 27  1  0
  6 28  1  0
 10 29  1  0
 10 30  1  0
 11 31  1  0
 12 32  1  0
 12 33  1  0
 13 34  1  0
 14 35  1  0
 14 36  1  0
 15 37  1  0
 15 38  1  0
 15 39  1  0
 16 40  1  0
 16 41  1  0
 16 42  1  0
 19 43  1  0
 20 44  1  0
 22 45  1  0
M  END
>  <rmsd>  (10) 
0.303494632

$$$$
CHEMBL3719102
     RDKit          3D

 42 45  0  0  0  0  0  0  0  0999 V2000
  -25.3103   60.3511  -26.6759 N   0  0  0  0  0  0  0  0  0  0  0  0
  -25.1032   62.7069  -26.8841 N   0  0  0  0  0  0  0  0  0  0  0  0
  -23.4608   58.8229  -27.0388 N   0  0  0  0  0  0  0  0  0  0  0  0
  -22.9123   63.5444  -27.3946 N   0  0  0  0  0  0  0  0  0  0  0  0
  -18.4607   58.9461  -27.8068 N   0  0  0  0  0  0  0  0  0  0  0  0
  -25.8635   61.6023  -26.6316 C   0  0  0  0  0  0  0  0  0  0  0  0
  -23.7910   62.5411  -27.1753 C   0  0  0  0  0  0  0  0  0  0  0  0
  -23.2136   61.2932  -27.2213 C   0  0  0  0  0  0  0  0  0  0  0  0
  -23.9918   60.1549  -26.9779 C   0  0  0  0  0  0  0  0  0  0  0  0
  -22.6621   58.3909  -28.1814 C   0  0  0  0  0  0  0  0  0  0  0  0
  -23.4740   57.4197  -29.0291 C   0  0  0  0  0  0  0  0  0  0  0  0
  -23.9549   56.2531  -28.1649 C   0  0  0  0  0  0  0  0  0  0  0  0
  -24.7679   56.7375  -26.9596 C   0  0  0  0  0  0  0  0  0  0  0  0
  -23.9928   57.7862  -26.1557 C   0  0  0  0  0  0  0  0  0  0  0  0
  -26.1219   57.2719  -27.3944 C   0  0  0  0  0  0  0  0  0  0  0  0
  -21.8790   61.5206  -27.4678 C   0  0  0  0  0  0  0  0  0  0  0  0
  -21.7423   62.8908  -27.5744 C   0  0  0  0  0  0  0  0  0  0  0  0
  -20.5018   63.4787  -27.8071 C   0  0  0  0  0  0  0  0  0  0  0  0
  -19.3856   62.6327  -27.9265 C   0  0  0  0  0  0  0  0  0  0  0  0
  -19.5175   61.2286  -27.8051 C   0  0  0  0  0  0  0  0  0  0  0  0
  -20.7858   60.6634  -27.5650 C   0  0  0  0  0  0  0  0  0  0  0  0
  -18.3338   60.3602  -27.9268 C   0  0  0  0  0  0  0  0  0  0  0  0
  -17.1969   60.8600  -28.1387 O   0  0  0  0  0  0  0  0  0  0  0  0
  -23.0903   64.5586  -27.4188 H   0  0  0  0  0  0  0  0  0  0  0  0
  -17.6286   58.3452  -27.8930 H   0  0  0  0  0  0  0  0  0  0  0  0
  -19.3845   58.5248  -27.6338 H   0  0  0  0  0  0  0  0  0  0  0  0
  -26.9304   61.7184  -26.3903 H   0  0  0  0  0  0  0  0  0  0  0  0
  -22.3868   59.2660  -28.7884 H   0  0  0  0  0  0  0  0  0  0  0  0
  -21.7496   57.8916  -27.8236 H   0  0  0  0  0  0  0  0  0  0  0  0
  -24.3439   57.9435  -29.4520 H   0  0  0  0  0  0  0  0  0  0  0  0
  -22.8425   57.0325  -29.8423 H   0  0  0  0  0  0  0  0  0  0  0  0
  -24.5853   55.5919  -28.7776 H   0  0  0  0  0  0  0  0  0  0  0  0
  -23.0706   55.7177  -27.7890 H   0  0  0  0  0  0  0  0  0  0  0  0
  -24.9422   55.8731  -26.3020 H   0  0  0  0  0  0  0  0  0  0  0  0
  -24.6675   58.2491  -25.4205 H   0  0  0  0  0  0  0  0  0  0  0  0
  -23.1538   57.2916  -25.6444 H   0  0  0  0  0  0  0  0  0  0  0  0
  -26.7248   57.5098  -26.5056 H   0  0  0  0  0  0  0  0  0  0  0  0
  -25.9809   58.1818  -27.9962 H   0  0  0  0  0  0  0  0  0  0  0  0
  -26.6404   56.5110  -27.9962 H   0  0  0  0  0  0  0  0  0  0  0  0
  -20.3985   64.5703  -27.8947 H   0  0  0  0  0  0  0  0  0  0  0  0
  -18.3939   63.0687  -28.1173 H   0  0  0  0  0  0  0  0  0  0  0  0
  -20.9089   59.5756  -27.4574 H   0  0  0  0  0  0  0  0  0  0  0  0
  4  7  1  0
  6  2  2  0
  7  8  2  0
  8 16  1  0
  9  3  1  0
  9  1  2  0
 10  3  1  0
 10 11  1  0
 11 12  1  0
 12 13  1  0
 13 14  1  0
 13 15  1  0
 14  3  1  0
 17  4  1  0
 17 18  2  0
 19 20  2  0
 20 22  1  0
 21 16  2  0
 22  5  1  0
  6  1  1  0
  7  2  1  0
  8  9  1  0
 16 17  1  0
 18 19  1  0
 20 21  1  0
 22 23  2  0
  4 24  1  0
  5 25  1  0
  5 26  1  0
  6 27  1  0
 10 28  1  0
 10 29  1  0
 11 30  1  0
 11 31  1  0
 12 32  1  0
 12 33  1  0
 13 34  1  0
 14 35  1  0
 14 36  1  0
 15 37  1  0
 15 38  1  0
 15 39  1  0
 18 40  1  0
 19 41  1  0
 21 42  1  0
M  END
>  <rmsd>  (11) 
0.304041654

$$$$
CHEMBL3715588
     RDKit          3D

 39 42  0  0  0  0  0  0  0  0999 V2000
  -25.3291   60.3452  -26.7829 N   0  0  0  0  0  0  0  0  0  0  0  0
  -25.1033   62.7069  -26.8847 N   0  0  0  0  0  0  0  0  0  0  0  0
  -23.4476   58.8297  -26.9760 N   0  0  0  0  0  0  0  0  0  0  0  0
  -22.8909   63.5508  -27.2824 N   0  0  0  0  0  0  0  0  0  0  0  0
  -18.5126   58.9315  -28.0742 N   0  0  0  0  0  0  0  0  0  0  0  0
  -25.8833   61.5962  -26.7397 C   0  0  0  0  0  0  0  0  0  0  0  0
  -23.7719   62.5469  -27.0748 C   0  0  0  0  0  0  0  0  0  0  0  0
  -23.1950   61.2995  -27.1249 C   0  0  0  0  0  0  0  0  0  0  0  0
  -23.9877   60.1574  -26.9641 C   0  0  0  0  0  0  0  0  0  0  0  0
  -22.2986   58.4960  -26.1343 C   0  0  0  0  0  0  0  0  0  0  0  0
  -22.6599   57.3662  -25.1687 C   0  0  0  0  0  0  0  0  0  0  0  0
  -23.4264   56.2133  -25.8375 C   0  0  0  0  0  0  0  0  0  0  0  0
  -23.5984   56.3921  -27.3462 C   0  0  0  0  0  0  0  0  0  0  0  0
  -24.1978   57.7642  -27.6465 C   0  0  0  0  0  0  0  0  0  0  0  0
  -21.8659   61.5248  -27.3989 C   0  0  0  0  0  0  0  0  0  0  0  0
  -21.7237   62.8962  -27.4773 C   0  0  0  0  0  0  0  0  0  0  0  0
  -20.4928   63.4808  -27.7634 C   0  0  0  0  0  0  0  0  0  0  0  0
  -19.3945   62.6294  -27.9757 C   0  0  0  0  0  0  0  0  0  0  0  0
  -19.5374   61.2226  -27.9091 C   0  0  0  0  0  0  0  0  0  0  0  0
  -20.7972   60.6603  -27.6218 C   0  0  0  0  0  0  0  0  0  0  0  0
  -18.3749   60.3481  -28.1413 C   0  0  0  0  0  0  0  0  0  0  0  0
  -17.2467   60.8449  -28.4013 O   0  0  0  0  0  0  0  0  0  0  0  0
  -23.0657   64.5658  -27.2902 H   0  0  0  0  0  0  0  0  0  0  0  0
  -17.6953   58.3263  -28.2377 H   0  0  0  0  0  0  0  0  0  0  0  0
  -19.4294   58.5127  -27.8622 H   0  0  0  0  0  0  0  0  0  0  0  0
  -26.9669   61.7073  -26.5868 H   0  0  0  0  0  0  0  0  0  0  0  0
  -21.4622   58.1747  -26.7724 H   0  0  0  0  0  0  0  0  0  0  0  0
  -22.0094   59.3846  -25.5540 H   0  0  0  0  0  0  0  0  0  0  0  0
  -21.7305   56.9641  -24.7391 H   0  0  0  0  0  0  0  0  0  0  0  0
  -23.3216   57.7941  -24.4012 H   0  0  0  0  0  0  0  0  0  0  0  0
  -22.8757   55.2782  -25.6579 H   0  0  0  0  0  0  0  0  0  0  0  0
  -24.4338   56.1944  -25.3961 H   0  0  0  0  0  0  0  0  0  0  0  0
  -22.6174   56.3082  -27.8368 H   0  0  0  0  0  0  0  0  0  0  0  0
  -24.2747   55.6124  -27.7266 H   0  0  0  0  0  0  0  0  0  0  0  0
  -24.1725   57.9367  -28.7326 H   0  0  0  0  0  0  0  0  0  0  0  0
  -25.2329   57.7806  -27.2746 H   0  0  0  0  0  0  0  0  0  0  0  0
  -20.3833   64.5738  -27.8214 H   0  0  0  0  0  0  0  0  0  0  0  0
  -18.4082   63.0633  -28.1971 H   0  0  0  0  0  0  0  0  0  0  0  0
  -20.9325   59.5697  -27.5749 H   0  0  0  0  0  0  0  0  0  0  0  0
  4  7  1  0
  6  2  2  0
  7  8  2  0
  8 15  1  0
  9  3  1  0
  9  1  2  0
 10  3  1  0
 10 11  1  0
 11 12  1  0
 12 13  1  0
 13 14  1  0
 14  3  1  0
 16  4  1  0
 16 17  2  0
 18 19  2  0
 19 21  1  0
 20 15  2  0
 21  5  1  0
  6  1  1  0
  7  2  1  0
  8  9  1  0
 15 16  1  0
 17 18  1  0
 19 20  1  0
 21 22  2  0
  4 23  1  0
  5 24  1  0
  5 25  1  0
  6 26  1  0
 10 27  1  0
 10 28  1  0
 11 29  1  0
 11 30  1  0
 12 31  1  0
 12 32  1  0
 13 33  1  0
 13 34  1  0
 14 35  1  0
 14 36  1  0
 17 37  1  0
 18 38  1  0
 20 39  1  0
M  END
>  <rmsd>  (12) 
0.304120153

$$$$
CHEMBL3719354
     RDKit          3D

 39 42  0  0  0  0  0  0  0  0999 V2000
  -25.3291   60.3452  -26.7829 N   0  0  0  0  0  0  0  0  0  0  0  0
  -25.1033   62.7069  -26.8847 N   0  0  0  0  0  0  0  0  0  0  0  0
  -23.4476   58.8297  -26.9760 N   0  0  0  0  0  0  0  0  0  0  0  0
  -22.8909   63.5508  -27.2824 N   0  0  0  0  0  0  0  0  0  0  0  0
  -18.5126   58.9315  -28.0742 N   0  0  0  0  0  0  0  0  0  0  0  0
  -25.8833   61.5962  -26.7397 C   0  0  0  0  0  0  0  0  0  0  0  0
  -23.7719   62.5469  -27.0748 C   0  0  0  0  0  0  0  0  0  0  0  0
  -23.1950   61.2995  -27.1249 C   0  0  0  0  0  0  0  0  0  0  0  0
  -23.9877   60.1574  -26.9641 C   0  0  0  0  0  0  0  0  0  0  0  0
  -22.2986   58.4960  -26.1343 C   0  0  0  0  0  0  0  0  0  0  0  0
  -22.6599   57.3662  -25.1687 C   0  0  0  0  0  0  0  0  0  0  0  0
  -23.4264   56.2133  -25.8375 C   0  0  0  0  0  0  0  0  0  0  0  0
  -23.5984   56.3921  -27.3462 C   0  0  0  0  0  0  0  0  0  0  0  0
  -24.1978   57.7642  -27.6465 C   0  0  0  0  0  0  0  0  0  0  0  0
  -21.8659   61.5248  -27.3989 C   0  0  0  0  0  0  0  0  0  0  0  0
  -21.7237   62.8962  -27.4773 C   0  0  0  0  0  0  0  0  0  0  0  0
  -20.4928   63.4808  -27.7634 C   0  0  0  0  0  0  0  0  0  0  0  0
  -19.3945   62.6294  -27.9757 C   0  0  0  0  0  0  0  0  0  0  0  0
  -19.5374   61.2226  -27.9091 C   0  0  0  0  0  0  0  0  0  0  0  0
  -20.7972   60.6603  -27.6218 C   0  0  0  0  0  0  0  0  0  0  0  0
  -18.3749   60.3481  -28.1413 C   0  0  0  0  0  0  0  0  0  0  0  0
  -17.2467   60.8449  -28.4013 O   0  0  0  0  0  0  0  0  0  0  0  0
  -23.0657   64.5658  -27.2902 H   0  0  0  0  0  0  0  0  0  0  0  0
  -17.6953   58.3263  -28.2377 H   0  0  0  0  0  0  0  0  0  0  0  0
  -19.4294   58.5127  -27.8622 H   0  0  0  0  0  0  0  0  0  0  0  0
  -26.9669   61.7073  -26.5868 H   0  0  0  0  0  0  0  0  0  0  0  0
  -21.4622   58.1747  -26.7724 H   0  0  0  0  0  0  0  0  0  0  0  0
  -22.0094   59.3846  -25.5540 H   0  0  0  0  0  0  0  0  0  0  0  0
  -21.7305   56.9641  -24.7391 H   0  0  0  0  0  0  0  0  0  0  0  0
  -23.3216   57.7941  -24.4012 H   0  0  0  0  0  0  0  0  0  0  0  0
  -22.8757   55.2782  -25.6579 H   0  0  0  0  0  0  0  0  0  0  0  0
  -24.4338   56.1944  -25.3961 H   0  0  0  0  0  0  0  0  0  0  0  0
  -22.6174   56.3082  -27.8368 H   0  0  0  0  0  0  0  0  0  0  0  0
  -24.2747   55.6124  -27.7266 H   0  0  0  0  0  0  0  0  0  0  0  0
  -24.1725   57.9367  -28.7326 H   0  0  0  0  0  0  0  0  0  0  0  0
  -25.2329   57.7806  -27.2746 H   0  0  0  0  0  0  0  0  0  0  0  0
  -20.3833   64.5738  -27.8214 H   0  0  0  0  0  0  0  0  0  0  0  0
  -18.4082   63.0633  -28.1971 H   0  0  0  0  0  0  0  0  0  0  0  0
  -20.9325   59.5697  -27.5749 H   0  0  0  0  0  0  0  0  0  0  0  0
  4  7  1  0
  6  2  2  0
  7  8  2  0
  8 15  1  0
  9  3  1  0
  9  1  2  0
 10  3  1  0
 10 11  1  0
 11 12  1  0
 12 13  1  0
 13 14  1  0
 14  3  1  0
 16  4  1  0
 16 17  2  0
 18 19  2  0
 19 21  1  0
 20 15  2  0
 21  5  1  0
  6  1  1  0
  7  2  1  0
  8  9  1  0
 15 16  1  0
 17 18  1  0
 19 20  1  0
 21 22  2  0
  4 23  1  0
  5 24  1  0
  5 25  1  0
  6 26  1  0
 10 27  1  0
 10 28  1  0
 11 29  1  0
 11 30  1  0
 12 31  1  0
 12 32  1  0
 13 33  1  0
 13 34  1  0
 14 35  1  0
 14 36  1  0
 17 37  1  0
 18 38  1  0
 20 39  1  0
M  END
>  <rmsd>  (13) 
0.304120153

$$$$
CHEMBL3716162
     RDKit          3D

 42 45  0  0  0  0  0  0  0  0999 V2000
  -25.3274   60.3457  -26.7799 N   0  0  0  0  0  0  0  0  0  0  0  0
  -25.1032   62.7073  -26.8853 N   0  0  0  0  0  0  0  0  0  0  0  0
  -23.4405   58.8309  -26.9794 N   0  0  0  0  0  0  0  0  0  0  0  0
  -22.8913   63.5515  -27.2869 N   0  0  0  0  0  0  0  0  0  0  0  0
  -17.0953   60.9101  -28.4263 N   0  0  0  0  0  0  0  0  0  0  0  0
  -25.8822   61.5965  -26.7368 C   0  0  0  0  0  0  0  0  0  0  0  0
  -23.7723   62.5476  -27.0792 C   0  0  0  0  0  0  0  0  0  0  0  0
  -23.1952   61.3005  -27.1292 C   0  0  0  0  0  0  0  0  0  0  0  0
  -23.9862   60.1581  -26.9654 C   0  0  0  0  0  0  0  0  0  0  0  0
  -22.3077   58.4943  -26.1235 C   0  0  0  0  0  0  0  0  0  0  0  0
  -22.8064   57.7356  -24.8938 C   0  0  0  0  0  0  0  0  0  0  0  0
  -23.6667   56.5314  -25.2940 C   0  0  0  0  0  0  0  0  0  0  0  0
  -24.7973   56.9392  -26.2459 C   0  0  0  0  0  0  0  0  0  0  0  0
  -24.2603   57.7183  -27.4474 C   0  0  0  0  0  0  0  0  0  0  0  0
  -22.8158   55.4244  -25.8949 C   0  0  0  0  0  0  0  0  0  0  0  0
  -21.8661   61.5255  -27.4022 C   0  0  0  0  0  0  0  0  0  0  0  0
  -21.7240   62.8968  -27.4813 C   0  0  0  0  0  0  0  0  0  0  0  0
  -20.4926   63.4811  -27.7655 C   0  0  0  0  0  0  0  0  0  0  0  0
  -19.3936   62.6296  -27.9745 C   0  0  0  0  0  0  0  0  0  0  0  0
  -19.5362   61.2232  -27.9062 C   0  0  0  0  0  0  0  0  0  0  0  0
  -20.7968   60.6606  -27.6207 C   0  0  0  0  0  0  0  0  0  0  0  0
  -18.3723   60.3495  -28.1348 C   0  0  0  0  0  0  0  0  0  0  0  0
  -18.4950   59.0971  -28.0742 O   0  0  0  0  0  0  0  0  0  0  0  0
  -23.0662   64.5665  -27.2951 H   0  0  0  0  0  0  0  0  0  0  0  0
  -16.2860   60.2930  -28.5850 H   0  0  0  0  0  0  0  0  0  0  0  0
  -16.9814   61.9325  -28.4783 H   0  0  0  0  0  0  0  0  0  0  0  0
  -26.9655   61.7073  -26.5811 H   0  0  0  0  0  0  0  0  0  0  0  0
  -21.6008   57.8632  -26.6821 H   0  0  0  0  0  0  0  0  0  0  0  0
  -21.8018   59.4175  -25.8047 H   0  0  0  0  0  0  0  0  0  0  0  0
  -21.9403   57.3811  -24.3158 H   0  0  0  0  0  0  0  0  0  0  0  0
  -23.4232   58.4182  -24.2909 H   0  0  0  0  0  0  0  0  0  0  0  0
  -24.1321   56.1392  -24.3777 H   0  0  0  0  0  0  0  0  0  0  0  0
  -25.3069   56.0331  -26.6055 H   0  0  0  0  0  0  0  0  0  0  0  0
  -25.4959   57.5875  -25.6966 H   0  0  0  0  0  0  0  0  0  0  0  0
  -23.6498   57.0512  -28.0737 H   0  0  0  0  0  0  0  0  0  0  0  0
  -25.1028   58.1071  -28.0382 H   0  0  0  0  0  0  0  0  0  0  0  0
  -22.3607   54.8323  -25.0872 H   0  0  0  0  0  0  0  0  0  0  0  0
  -23.4476   54.7725  -26.5162 H   0  0  0  0  0  0  0  0  0  0  0  0
  -22.0234   55.8672  -26.5162 H   0  0  0  0  0  0  0  0  0  0  0  0
  -20.3831   64.5740  -27.8246 H   0  0  0  0  0  0  0  0  0  0  0  0
  -18.4070   63.0635  -28.1946 H   0  0  0  0  0  0  0  0  0  0  0  0
  -20.9319   59.5700  -27.5719 H   0  0  0  0  0  0  0  0  0  0  0  0
  4  7  1  0
  6  2  2  0
  7  8  2  0
  8 16  1  0
  9  3  1  0
  9  1  2  0
 10  3  1  0
 10 11  1  0
 11 12  1  0
 12 13  1  0
 12 15  1  0
 13 14  1  0
 14  3  1  0
 17  4  1  0
 17 18  2  0
 19 20  2  0
 20 22  1  0
 21 16  2  0
 22  5  1  0
  6  1  1  0
  7  2  1  0
  8  9  1  0
 16 17  1  0
 18 19  1  0
 20 21  1  0
 22 23  2  0
  4 24  1  0
  5 25  1  0
  5 26  1  0
  6 27  1  0
 10 28  1  0
 10 29  1  0
 11 30  1  0
 11 31  1  0
 12 32  1  0
 13 33  1  0
 13 34  1  0
 14 35  1  0
 14 36  1  0
 15 37  1  0
 15 38  1  0
 15 39  1  0
 18 40  1  0
 19 41  1  0
 21 42  1  0
M  END
>  <rmsd>  (14) 
0.304292321

$$$$
CHEMBL3715037
     RDKit          3D

 45 48  0  0  0  0  0  0  0  0999 V2000
  -25.3048   60.3497  -26.6749 N   0  0  0  0  0  0  0  0  0  0  0  0
  -25.1035   62.7073  -26.8851 N   0  0  0  0  0  0  0  0  0  0  0  0
  -23.4479   58.8350  -27.0323 N   0  0  0  0  0  0  0  0  0  0  0  0
  -22.9118   63.5480  -27.3964 N   0  0  0  0  0  0  0  0  0  0  0  0
  -18.4680   58.9411  -27.7988 N   0  0  0  0  0  0  0  0  0  0  0  0
  -25.8611   61.6002  -26.6313 C   0  0  0  0  0  0  0  0  0  0  0  0
  -23.7911   62.5445  -27.1781 C   0  0  0  0  0  0  0  0  0  0  0  0
  -23.2129   61.2986  -27.2246 C   0  0  0  0  0  0  0  0  0  0  0  0
  -23.9864   60.1608  -26.9785 C   0  0  0  0  0  0  0  0  0  0  0  0
  -22.7071   58.3860  -28.2113 C   0  0  0  0  0  0  0  0  0  0  0  0
  -23.2634   57.0585  -28.7074 C   0  0  0  0  0  0  0  0  0  0  0  0
  -23.2350   56.0409  -27.5757 C   0  0  0  0  0  0  0  0  0  0  0  0
  -24.1177   56.5157  -26.4244 C   0  0  0  0  0  0  0  0  0  0  0  0
  -23.7134   57.9097  -25.9269 C   0  0  0  0  0  0  0  0  0  0  0  0
  -22.5773   57.8917  -24.9011 C   0  0  0  0  0  0  0  0  0  0  0  0
  -21.2477   57.4530  -25.4933 C   0  0  0  0  0  0  0  0  0  0  0  0
  -21.8794   61.5237  -27.4704 C   0  0  0  0  0  0  0  0  0  0  0  0
  -21.7417   62.8935  -27.5761 C   0  0  0  0  0  0  0  0  0  0  0  0
  -20.4996   63.4789  -27.8068 C   0  0  0  0  0  0  0  0  0  0  0  0
  -19.3847   62.6302  -27.9246 C   0  0  0  0  0  0  0  0  0  0  0  0
  -19.5196   61.2259  -27.8039 C   0  0  0  0  0  0  0  0  0  0  0  0
  -20.7893   60.6631  -27.5665 C   0  0  0  0  0  0  0  0  0  0  0  0
  -18.3377   60.3547  -27.9220 C   0  0  0  0  0  0  0  0  0  0  0  0
  -17.1995   60.8516  -28.1333 O   0  0  0  0  0  0  0  0  0  0  0  0
  -23.0894   64.5623  -27.4201 H   0  0  0  0  0  0  0  0  0  0  0  0
  -17.6372   58.3381  -27.8825 H   0  0  0  0  0  0  0  0  0  0  0  0
  -19.3930   58.5223  -27.6260 H   0  0  0  0  0  0  0  0  0  0  0  0
  -26.9282   61.7138  -26.3896 H   0  0  0  0  0  0  0  0  0  0  0  0
  -22.8001   59.1393  -29.0075 H   0  0  0  0  0  0  0  0  0  0  0  0
  -21.6490   58.2535  -27.9415 H   0  0  0  0  0  0  0  0  0  0  0  0
  -24.2999   57.1996  -29.0475 H   0  0  0  0  0  0  0  0  0  0  0  0
  -22.6492   56.6935  -29.5438 H   0  0  0  0  0  0  0  0  0  0  0  0
  -23.6075   55.0742  -27.9456 H   0  0  0  0  0  0  0  0  0  0  0  0
  -22.2014   55.9296  -27.2161 H   0  0  0  0  0  0  0  0  0  0  0  0
  -25.1619   56.5505  -26.7686 H   0  0  0  0  0  0  0  0  0  0  0  0
  -23.9970   55.8091  -25.5901 H   0  0  0  0  0  0  0  0  0  0  0  0
  -24.5900   58.2937  -25.3845 H   0  0  0  0  0  0  0  0  0  0  0  0
  -22.4603   58.9053  -24.4901 H   0  0  0  0  0  0  0  0  0  0  0  0
  -22.8478   57.1616  -24.1241 H   0  0  0  0  0  0  0  0  0  0  0  0
  -20.5433   57.2206  -24.6810 H   0  0  0  0  0  0  0  0  0  0  0  0
  -21.4003   56.5576  -26.1137 H   0  0  0  0  0  0  0  0  0  0  0  0
  -20.8374   58.2634  -26.1137 H   0  0  0  0  0  0  0  0  0  0  0  0
  -20.3939   64.5703  -27.8941 H   0  0  0  0  0  0  0  0  0  0  0  0
  -18.3918   63.0642  -28.1136 H   0  0  0  0  0  0  0  0  0  0  0  0
  -20.9156   59.5756  -27.4602 H   0  0  0  0  0  0  0  0  0  0  0  0
  4  7  1  0
  6  2  2  0
  7  8  2  0
  8 17  1  0
  9  3  1  0
  9  1  2  0
 10  3  1  0
 10 11  1  0
 11 12  1  0
 12 13  1  0
 13 14  1  0
 14 15  1  0
 14  3  1  0
 15 16  1  0
 18  4  1  0
 18 19  2  0
 20 21  2  0
 21 23  1  0
 22 17  2  0
 23  5  1  0
  6  1  1  0
  7  2  1  0
  8  9  1  0
 17 18  1  0
 19 20  1  0
 21 22  1  0
 23 24  2  0
  4 25  1  0
  5 26  1  0
  5 27  1  0
  6 28  1  0
 10 29  1  0
 10 30  1  0
 11 31  1  0
 11 32  1  0
 12 33  1  0
 12 34  1  0
 13 35  1  0
 13 36  1  0
 14 37  1  0
 15 38  1  0
 15 39  1  0
 16 40  1  0
 16 41  1  0
 16 42  1  0
 19 43  1  0
 20 44  1  0
 22 45  1  0
M  END
>  <rmsd>  (15) 
0.305349827

$$$$
CHEMBL3715974
     RDKit          3D

 42 45  0  0  0  0  0  0  0  0999 V2000
  -24.6609   55.8341  -27.4143 C   0  0  0  0  0  0  0  0  0  0  0  0
  -23.4379   56.0299  -28.3158 C   0  0  0  0  0  0  0  0  0  0  0  0
  -23.4367   57.3713  -29.0340 C   0  0  0  0  0  0  0  0  0  0  0  0
  -22.6803   58.3991  -28.2007 C   0  0  0  0  0  0  0  0  0  0  0  0
  -23.8819   57.8395  -26.0479 C   0  0  0  0  0  0  0  0  0  0  0  0
  -25.0717   57.0517  -26.5800 C   0  0  0  0  0  0  0  0  0  0  0  0
  -23.9900   60.1557  -26.9781 C   0  0  0  0  0  0  0  0  0  0  0  0
  -25.8630   61.6011  -26.6343 C   0  0  0  0  0  0  0  0  0  0  0  0
  -23.7901   62.5413  -27.1751 C   0  0  0  0  0  0  0  0  0  0  0  0
  -23.2125   61.2939  -27.2212 C   0  0  0  0  0  0  0  0  0  0  0  0
  -21.8781   61.5209  -27.4678 C   0  0  0  0  0  0  0  0  0  0  0  0
  -21.7413   62.8911  -27.5740 C   0  0  0  0  0  0  0  0  0  0  0  0
  -20.5007   63.4784  -27.8070 C   0  0  0  0  0  0  0  0  0  0  0  0
  -19.3848   62.6319  -27.9273 C   0  0  0  0  0  0  0  0  0  0  0  0
  -19.5173   61.2277  -27.8066 C   0  0  0  0  0  0  0  0  0  0  0  0
  -20.7857   60.6629  -27.5661 C   0  0  0  0  0  0  0  0  0  0  0  0
  -18.3340   60.3588  -27.9295 C   0  0  0  0  0  0  0  0  0  0  0  0
  -23.4590   58.8240  -27.0397 N   0  0  0  0  0  0  0  0  0  0  0  0
  -25.3093   60.3501  -26.6785 N   0  0  0  0  0  0  0  0  0  0  0  0
  -25.1027   62.7064  -26.8852 N   0  0  0  0  0  0  0  0  0  0  0  0
  -22.9113   63.5447  -27.3940 N   0  0  0  0  0  0  0  0  0  0  0  0
  -18.4616   58.9447  -27.8104 N   0  0  0  0  0  0  0  0  0  0  0  0
  -17.1970   60.8583  -28.1416 O   0  0  0  0  0  0  0  0  0  0  0  0
  -25.5124   55.5599  -28.0544 H   0  0  0  0  0  0  0  0  0  0  0  0
  -24.3788   55.0554  -26.6904 H   0  0  0  0  0  0  0  0  0  0  0  0
  -22.5315   55.9634  -27.6961 H   0  0  0  0  0  0  0  0  0  0  0  0
  -23.4678   55.2448  -29.0857 H   0  0  0  0  0  0  0  0  0  0  0  0
  -22.9465   57.2617  -30.0126 H   0  0  0  0  0  0  0  0  0  0  0  0
  -24.4737   57.7094  -29.1762 H   0  0  0  0  0  0  0  0  0  0  0  0
  -21.7361   57.9536  -27.8543 H   0  0  0  0  0  0  0  0  0  0  0  0
  -22.4892   59.2809  -28.8300 H   0  0  0  0  0  0  0  0  0  0  0  0
  -23.0505   57.1499  -25.8399 H   0  0  0  0  0  0  0  0  0  0  0  0
  -24.1732   58.3575  -25.1223 H   0  0  0  0  0  0  0  0  0  0  0  0
  -25.6721   56.7047  -25.7261 H   0  0  0  0  0  0  0  0  0  0  0  0
  -25.6422   57.7234  -27.2383 H   0  0  0  0  0  0  0  0  0  0  0  0
  -26.9303   61.7166  -26.3944 H   0  0  0  0  0  0  0  0  0  0  0  0
  -20.3970   64.5700  -27.8942 H   0  0  0  0  0  0  0  0  0  0  0  0
  -18.3930   63.0676  -28.1182 H   0  0  0  0  0  0  0  0  0  0  0  0
  -20.9094   59.5751  -27.4591 H   0  0  0  0  0  0  0  0  0  0  0  0
  -23.0893   64.5589  -27.4179 H   0  0  0  0  0  0  0  0  0  0  0  0
  -17.6299   58.3434  -27.8974 H   0  0  0  0  0  0  0  0  0  0  0  0
  -19.3856   58.5237  -27.6373 H   0  0  0  0  0  0  0  0  0  0  0  0
  1  2  1  0
  2  3  1  0
  3  4  1  0
  4 18  1  0
  5 18  1  0
  5  6  1  0
  6  1  1  0
  8 19  2  0
  9 20  2  0
 10 11  1  0
 10  7  2  0
 12 21  1  0
 12 13  2  0
 14 15  2  0
 15 17  1  0
 16 11  2  0
 17 22  1  0
 18  7  1  0
 21  9  1  0
  7 19  1  0
  8 20  1  0
  9 10  1  0
 11 12  1  0
 13 14  1  0
 15 16  1  0
 17 23  2  0
  1 24  1  0
  1 25  1  0
  2 26  1  0
  2 27  1  0
  3 28  1  0
  3 29  1  0
  4 30  1  0
  4 31  1  0
  5 32  1  0
  5 33  1  0
  6 34  1  0
  6 35  1  0
  8 36  1  0
 13 37  1  0
 14 38  1  0
 16 39  1  0
 21 40  1  0
 22 41  1  0
 22 42  1  0
M  END
>  <rmsd>  (16) 
0.303964913

$$$$
CHEMBL3356065
     RDKit          3D

 49 52  0  0  0  0  0  0  0  0999 V2000
  -26.7272   60.5006  -26.4652 C   0  0  0  0  0  0  0  0  0  0  0  0
  -25.2251   62.0875  -25.6312 C   0  0  0  0  0  0  0  0  0  0  0  0
  -25.4608   61.8310  -27.9935 C   0  0  0  0  0  0  0  0  0  0  0  0
  -26.4183   60.8411  -27.7487 C   0  0  0  0  0  0  0  0  0  0  0  0
  -27.2560   60.0934  -28.5472 C   0  0  0  0  0  0  0  0  0  0  0  0
  -28.0350   59.3261  -27.6878 C   0  0  0  0  0  0  0  0  0  0  0  0
  -27.4158   60.1563  -30.0265 C   0  0  0  0  0  0  0  0  0  0  0  0
  -24.9280   63.6258  -29.6379 C   0  0  0  0  0  0  0  0  0  0  0  0
  -23.4820   63.9454  -30.0134 C   0  0  0  0  0  0  0  0  0  0  0  0
  -23.7504   61.8245  -31.3743 C   0  0  0  0  0  0  0  0  0  0  0  0
  -24.5228   61.1863  -30.2212 C   0  0  0  0  0  0  0  0  0  0  0  0
  -21.4717   62.8026  -31.0262 C   0  0  0  0  0  0  0  0  0  0  0  0
  -20.5476   63.6888  -30.2537 C   0  0  0  0  0  0  0  0  0  0  0  0
  -20.0486   62.9862  -29.0364 C   0  0  0  0  0  0  0  0  0  0  0  0
  -20.7597   63.0686  -27.8321 C   0  0  0  0  0  0  0  0  0  0  0  0
  -20.2928   62.3989  -26.6958 C   0  0  0  0  0  0  0  0  0  0  0  0
  -19.1184   61.6415  -26.7629 C   0  0  0  0  0  0  0  0  0  0  0  0
  -18.4113   61.5531  -27.9666 C   0  0  0  0  0  0  0  0  0  0  0  0
  -18.8762   62.2250  -29.1020 C   0  0  0  0  0  0  0  0  0  0  0  0
  -23.4343   65.2804  -30.7332 C   0  0  0  0  0  0  0  0  0  0  0  0
  -26.1504   61.1109  -25.4016 N   0  0  0  0  0  0  0  0  0  0  0  0
  -24.8874   62.4370  -26.9115 N   0  0  0  0  0  0  0  0  0  0  0  0
  -27.7014   59.5775  -26.3974 N   0  0  0  0  0  0  0  0  0  0  0  0
  -25.0632   62.2054  -29.3153 N   0  0  0  0  0  0  0  0  0  0  0  0
  -22.8948   62.8904  -30.8519 N   0  0  0  0  0  0  0  0  0  0  0  0
  -20.9805   61.9445  -31.8081 O   0  0  0  0  0  0  0  0  0  0  0  0
  -24.7472   62.5975  -24.7818 H   0  0  0  0  0  0  0  0  0  0  0  0
  -28.8114   58.6162  -28.0090 H   0  0  0  0  0  0  0  0  0  0  0  0
  -28.4137   60.5491  -30.2711 H   0  0  0  0  0  0  0  0  0  0  0  0
  -26.6469   60.8189  -30.4505 H   0  0  0  0  0  0  0  0  0  0  0  0
  -27.3048   59.1474  -30.4505 H   0  0  0  0  0  0  0  0  0  0  0  0
  -25.5860   63.8705  -30.4847 H   0  0  0  0  0  0  0  0  0  0  0  0
  -25.2110   64.2225  -28.7582 H   0  0  0  0  0  0  0  0  0  0  0  0
  -22.8863   63.9998  -29.0903 H   0  0  0  0  0  0  0  0  0  0  0  0
  -24.4590   62.2458  -32.1026 H   0  0  0  0  0  0  0  0  0  0  0  0
  -23.1297   61.0625  -31.8684 H   0  0  0  0  0  0  0  0  0  0  0  0
  -25.3540   60.5936  -30.6309 H   0  0  0  0  0  0  0  0  0  0  0  0
  -23.8326   60.5459  -29.6524 H   0  0  0  0  0  0  0  0  0  0  0  0
  -19.6930   63.9632  -30.8895 H   0  0  0  0  0  0  0  0  0  0  0  0
  -21.0948   64.5917  -29.9449 H   0  0  0  0  0  0  0  0  0  0  0  0
  -21.6856   63.6601  -27.7798 H   0  0  0  0  0  0  0  0  0  0  0  0
  -20.8493   62.4679  -25.7494 H   0  0  0  0  0  0  0  0  0  0  0  0
  -18.7512   61.1156  -25.8693 H   0  0  0  0  0  0  0  0  0  0  0  0
  -17.4896   60.9552  -28.0203 H   0  0  0  0  0  0  0  0  0  0  0  0
  -18.3193   62.1549  -30.0480 H   0  0  0  0  0  0  0  0  0  0  0  0
  -23.4052   66.0946  -29.9941 H   0  0  0  0  0  0  0  0  0  0  0  0
  -22.5340   65.3251  -31.3636 H   0  0  0  0  0  0  0  0  0  0  0  0
  -24.3291   65.3892  -31.3636 H   0  0  0  0  0  0  0  0  0  0  0  0
  -28.1063   59.1535  -25.5505 H   0  0  0  0  0  0  0  0  0  0  0  0
  2 21  2  0
  3 22  2  0
  3 24  1  0
  4  5  1  0
  4  1  2  0
  6 23  1  0
  7  5  1  0
  8 24  1  0
  8  9  1  0
  9 25  1  0
  9 20  1  0
 10 25  1  0
 10 11  1  0
 11 24  1  0
 13 12  1  0
 13 14  1  0
 15 16  2  0
 17 18  2  0
 19 14  2  0
 23  1  1  0
 25 12  1  0
  1 21  1  0
  2 22  1  0
  3  4  1  0
  5  6  2  0
 12 26  2  0
 14 15  1  0
 16 17  1  0
 18 19  1  0
  2 27  1  0
  6 28  1  0
  7 29  1  0
  7 30  1  0
  7 31  1  0
  8 32  1  0
  8 33  1  0
  9 34  1  0
 10 35  1  0
 10 36  1  0
 11 37  1  0
 11 38  1  0
 13 39  1  0
 13 40  1  0
 15 41  1  0
 16 42  1  0
 17 43  1  0
 18 44  1  0
 19 45  1  0
 20 46  1  0
 20 47  1  0
 20 48  1  0
 23 49  1  0
M  END
>  <rmsd>  (17) 
0.716837764

$$$$
CHEMBL1630790
     RDKit          3D

 50 53  0  0  0  0  0  0  0  0999 V2000
  -23.7048   60.8075  -26.7991 N   0  0  0  0  0  0  0  0  0  0  0  0
  -25.0961   62.7256  -26.8858 N   0  0  0  0  0  0  0  0  0  0  0  0
  -27.4517   62.2958  -26.9251 N   0  0  0  0  0  0  0  0  0  0  0  0
  -24.5824   58.5261  -26.7729 N   0  0  0  0  0  0  0  0  0  0  0  0
  -21.0696   58.9185  -26.2638 N   0  0  0  0  0  0  0  0  0  0  0  0
  -23.8525   62.1674  -26.8363 C   0  0  0  0  0  0  0  0  0  0  0  0
  -26.1717   61.9032  -26.8974 C   0  0  0  0  0  0  0  0  0  0  0  0
  -28.1581   61.1386  -26.9036 C   0  0  0  0  0  0  0  0  0  0  0  0
  -27.3218   60.0205  -26.8610 C   0  0  0  0  0  0  0  0  0  0  0  0
  -26.0496   60.5491  -26.8629 C   0  0  0  0  0  0  0  0  0  0  0  0
  -24.7791   59.9599  -26.8145 C   0  0  0  0  0  0  0  0  0  0  0  0
  -23.3199   57.9059  -26.3602 C   0  0  0  0  0  0  0  0  0  0  0  0
  -22.1084   58.4113  -27.1591 C   0  0  0  0  0  0  0  0  0  0  0  0
  -20.6121   57.8047  -25.4367 C   0  0  0  0  0  0  0  0  0  0  0  0
  -21.7180   57.3275  -24.4772 C   0  0  0  0  0  0  0  0  0  0  0  0
  -23.1128   57.8628  -24.8304 C   0  0  0  0  0  0  0  0  0  0  0  0
  -23.3182   59.2126  -24.1592 C   0  0  0  0  0  0  0  0  0  0  0  0
  -19.9501   59.3395  -27.0904 C   0  0  0  0  0  0  0  0  0  0  0  0
  -20.0940   60.7845  -27.4459 C   0  0  0  0  0  0  0  0  0  0  0  0
  -20.3168   61.1710  -28.7763 C   0  0  0  0  0  0  0  0  0  0  0  0
  -20.4687   62.5267  -29.0930 C   0  0  0  0  0  0  0  0  0  0  0  0
  -20.3936   63.4938  -28.0865 C   0  0  0  0  0  0  0  0  0  0  0  0
  -20.1675   63.1102  -26.7621 C   0  0  0  0  0  0  0  0  0  0  0  0
  -20.0182   61.7583  -26.4423 C   0  0  0  0  0  0  0  0  0  0  0  0
  -25.6071   57.6157  -27.2604 C   0  0  0  0  0  0  0  0  0  0  0  0
  -20.6901   62.9073  -30.3749 F   0  0  0  0  0  0  0  0  0  0  0  0
  -20.3965   60.2375  -29.7584 F   0  0  0  0  0  0  0  0  0  0  0  0
  -27.8168   63.2584  -26.9558 H   0  0  0  0  0  0  0  0  0  0  0  0
  -22.9629   62.8144  -26.8262 H   0  0  0  0  0  0  0  0  0  0  0  0
  -29.2568   61.0866  -26.9180 H   0  0  0  0  0  0  0  0  0  0  0  0
  -27.6127   58.9600  -26.8325 H   0  0  0  0  0  0  0  0  0  0  0  0
  -23.4096   56.8452  -26.6373 H   0  0  0  0  0  0  0  0  0  0  0  0
  -21.6979   57.5823  -27.7543 H   0  0  0  0  0  0  0  0  0  0  0  0
  -22.4368   59.2297  -27.8167 H   0  0  0  0  0  0  0  0  0  0  0  0
  -20.3202   56.9695  -26.0904 H   0  0  0  0  0  0  0  0  0  0  0  0
  -19.7564   58.1473  -24.8364 H   0  0  0  0  0  0  0  0  0  0  0  0
  -21.7506   56.2283  -24.5037 H   0  0  0  0  0  0  0  0  0  0  0  0
  -21.4675   57.7153  -23.4788 H   0  0  0  0  0  0  0  0  0  0  0  0
  -23.8841   57.1796  -24.4452 H   0  0  0  0  0  0  0  0  0  0  0  0
  -23.2989   59.0856  -23.0667 H   0  0  0  0  0  0  0  0  0  0  0  0
  -22.5142   59.8992  -24.4628 H   0  0  0  0  0  0  0  0  0  0  0  0
  -24.2900   59.6290  -24.4628 H   0  0  0  0  0  0  0  0  0  0  0  0
  -19.0117   59.1922  -26.5357 H   0  0  0  0  0  0  0  0  0  0  0  0
  -19.9356   58.7398  -28.0124 H   0  0  0  0  0  0  0  0  0  0  0  0
  -20.5127   64.5582  -28.3374 H   0  0  0  0  0  0  0  0  0  0  0  0
  -20.1070   63.8724  -25.9713 H   0  0  0  0  0  0  0  0  0  0  0  0
  -19.8406   61.4580  -25.3991 H   0  0  0  0  0  0  0  0  0  0  0  0
  -26.1252   57.1554  -26.4061 H   0  0  0  0  0  0  0  0  0  0  0  0
  -26.3320   58.1731  -27.8718 H   0  0  0  0  0  0  0  0  0  0  0  0
  -25.1389   56.8302  -27.8718 H   0  0  0  0  0  0  0  0  0  0  0  0
  3  8  1  0
  6  2  2  0
  7  3  1  0
  9 10  1  0
 10  7  2  0
 11  4  1  0
 11  1  2  0
 12  4  1  0
 12 13  1  0
 13  5  1  0
 14  5  1  0
 14 15  1  0
 15 16  1  0
 16 17  1  0
 16 12  1  0
 18  5  1  0
 18 19  1  0
 20 21  2  0
 20 27  1  0
 21 26  1  0
 22 23  2  0
 24 19  2  0
 25  4  1  0
  6  1  1  0
  7  2  1  0
  8  9  2  0
 10 11  1  0
 19 20  1  0
 21 22  1  0
 23 24  1  0
  3 28  1  0
  6 29  1  0
  8 30  1  0
  9 31  1  0
 12 32  1  0
 13 33  1  0
 13 34  1  0
 14 35  1  0
 14 36  1  0
 15 37  1  0
 15 38  1  0
 16 39  1  0
 17 40  1  0
 17 41  1  0
 17 42  1  0
 18 43  1  0
 18 44  1  0
 22 45  1  0
 23 46  1  0
 24 47  1  0
 25 48  1  0
 25 49  1  0
 25 50  1  0
M  END
>  <rmsd>  (18) 
0.0499757379

$$$$
CHEMBL4167162
     RDKit          3D

 47 50  0  0  0  0  0  0  0  0999 V2000
  -25.8278   57.8379  -26.5117 C   0  0  0  0  0  0  0  0  0  0  0  0
  -27.1330   58.2911  -26.2889 C   0  0  0  0  0  0  0  0  0  0  0  0
  -27.4232   59.6587  -26.3013 C   0  0  0  0  0  0  0  0  0  0  0  0
  -26.4062   60.5866  -26.5376 C   0  0  0  0  0  0  0  0  0  0  0  0
  -25.0876   60.1427  -26.7633 C   0  0  0  0  0  0  0  0  0  0  0  0
  -24.8066   58.7705  -26.7489 C   0  0  0  0  0  0  0  0  0  0  0  0
  -24.0912   61.1009  -26.9970 C   0  0  0  0  0  0  0  0  0  0  0  0
  -25.7058   62.8277  -26.7785 C   0  0  0  0  0  0  0  0  0  0  0  0
  -21.5961   61.5171  -27.4848 C   0  0  0  0  0  0  0  0  0  0  0  0
  -20.3524   60.9086  -27.6884 C   0  0  0  0  0  0  0  0  0  0  0  0
  -19.2166   61.6842  -27.9389 C   0  0  0  0  0  0  0  0  0  0  0  0
  -19.3187   63.0770  -27.9871 C   0  0  0  0  0  0  0  0  0  0  0  0
  -20.5560   63.6937  -27.7850 C   0  0  0  0  0  0  0  0  0  0  0  0
  -21.6905   62.9165  -27.5347 C   0  0  0  0  0  0  0  0  0  0  0  0
  -24.3121   55.7793  -26.6928 C   0  0  0  0  0  0  0  0  0  0  0  0
  -24.2329   54.2943  -26.6105 C   0  0  0  0  0  0  0  0  0  0  0  0
  -25.2308   53.4871  -24.6483 C   0  0  0  0  0  0  0  0  0  0  0  0
  -24.9648   52.2977  -23.7519 C   0  0  0  0  0  0  0  0  0  0  0  0
  -23.6174   51.7690  -24.1768 C   0  0  0  0  0  0  0  0  0  0  0  0
  -23.1730   52.6673  -25.3097 C   0  0  0  0  0  0  0  0  0  0  0  0
  -24.4281   62.4201  -26.9982 N   0  0  0  0  0  0  0  0  0  0  0  0
  -26.6849   61.9146  -26.5502 N   0  0  0  0  0  0  0  0  0  0  0  0
  -22.7358   60.6839  -27.2308 N   0  0  0  0  0  0  0  0  0  0  0  0
  -25.5748   56.4267  -26.4897 N   0  0  0  0  0  0  0  0  0  0  0  0
  -23.9628   53.8865  -25.2413 N   0  0  0  0  0  0  0  0  0  0  0  0
  -17.8972   64.0486  -28.3005 Cl  0  0  0  0  0  0  0  0  0  0  0  0
  -23.2632   56.4425  -26.9079 O   0  0  0  0  0  0  0  0  0  0  0  0
  -27.9378   57.5648  -26.1023 H   0  0  0  0  0  0  0  0  0  0  0  0
  -28.4526   60.0040  -26.1249 H   0  0  0  0  0  0  0  0  0  0  0  0
  -23.7783   58.4216  -26.9247 H   0  0  0  0  0  0  0  0  0  0  0  0
  -25.9478   63.9007  -26.7856 H   0  0  0  0  0  0  0  0  0  0  0  0
  -20.2680   59.8125  -27.6511 H   0  0  0  0  0  0  0  0  0  0  0  0
  -18.2427   61.1982  -28.0980 H   0  0  0  0  0  0  0  0  0  0  0  0
  -20.6373   64.7900  -27.8228 H   0  0  0  0  0  0  0  0  0  0  0  0
  -22.6633   63.4047  -27.3758 H   0  0  0  0  0  0  0  0  0  0  0  0
  -25.1887   53.8597  -26.9383 H   0  0  0  0  0  0  0  0  0  0  0  0
  -23.4196   53.9392  -27.2604 H   0  0  0  0  0  0  0  0  0  0  0  0
  -25.6456   54.3166  -24.0569 H   0  0  0  0  0  0  0  0  0  0  0  0
  -25.9568   53.2244  -25.4318 H   0  0  0  0  0  0  0  0  0  0  0  0
  -24.9410   52.6086  -22.6970 H   0  0  0  0  0  0  0  0  0  0  0  0
  -25.7510   51.5336  -23.8421 H   0  0  0  0  0  0  0  0  0  0  0  0
  -22.9030   51.8203  -23.3419 H   0  0  0  0  0  0  0  0  0  0  0  0
  -23.6706   50.7150  -24.4870 H   0  0  0  0  0  0  0  0  0  0  0  0
  -22.1047   52.9061  -25.2018 H   0  0  0  0  0  0  0  0  0  0  0  0
  -23.3185   52.1671  -26.2785 H   0  0  0  0  0  0  0  0  0  0  0  0
  -22.5627   59.6687  -27.2140 H   0  0  0  0  0  0  0  0  0  0  0  0
  -26.3837   55.8151  -26.3094 H   0  0  0  0  0  0  0  0  0  0  0  0
  1 24  1  0
  2  3  2  0
  4  5  2  0
  4 22  1  0
  5  7  1  0
  6  1  2  0
  7 23  1  0
  8 21  1  0
 10 11  2  0
 12 13  2  0
 12 26  1  0
 14  9  2  0
 16 15  1  0
 16 25  1  0
 17 25  1  0
 17 18  1  0
 18 19  1  0
 19 20  1  0
 20 25  1  0
 23  9  1  0
 24 15  1  0
  1  2  1  0
  3  4  1  0
  5  6  1  0
  7 21  2  0
  8 22  2  0
  9 10  1  0
 11 12  1  0
 13 14  1  0
 15 27  2  0
  2 28  1  0
  3 29  1  0
  6 30  1  0
  8 31  1  0
 10 32  1  0
 11 33  1  0
 13 34  1  0
 14 35  1  0
 16 36  1  0
 16 37  1  0
 17 38  1  0
 17 39  1  0
 18 40  1  0
 18 41  1  0
 19 42  1  0
 19 43  1  0
 20 44  1  0
 20 45  1  0
 23 46  1  0
 24 47  1  0
M  END
>  <rmsd>  (19) 
0.524958014

$$$$
CHEMBL4649816
     RDKit          3D

 39 42  0  0  0  0  0  0  0  0999 V2000
  -23.5262   58.0073  -28.9958 C   0  0  0  0  0  0  0  0  0  0  0  0
  -23.4498   57.8028  -27.4769 C   0  0  0  0  0  0  0  0  0  0  0  0
  -22.0564   58.2462  -27.0023 C   0  0  0  0  0  0  0  0  0  0  0  0
  -22.1789   58.5069  -29.3288 C   0  0  0  0  0  0  0  0  0  0  0  0
  -20.0528   59.3097  -28.1901 C   0  0  0  0  0  0  0  0  0  0  0  0
  -20.2470   60.7692  -27.9515 C   0  0  0  0  0  0  0  0  0  0  0  0
  -20.4141   61.6398  -29.0341 C   0  0  0  0  0  0  0  0  0  0  0  0
  -20.6221   63.0041  -28.8095 C   0  0  0  0  0  0  0  0  0  0  0  0
  -20.6690   63.4984  -27.5023 C   0  0  0  0  0  0  0  0  0  0  0  0
  -20.5103   62.6282  -26.4193 C   0  0  0  0  0  0  0  0  0  0  0  0
  -20.3020   61.2639  -26.6436 C   0  0  0  0  0  0  0  0  0  0  0  0
  -24.6610   59.9741  -26.8345 C   0  0  0  0  0  0  0  0  0  0  0  0
  -23.9873   62.1297  -27.6094 C   0  0  0  0  0  0  0  0  0  0  0  0
  -25.8192   61.9380  -26.1768 C   0  0  0  0  0  0  0  0  0  0  0  0
  -25.6785   60.5983  -26.1267 C   0  0  0  0  0  0  0  0  0  0  0  0
  -27.3219   61.1567  -24.9278 C   0  0  0  0  0  0  0  0  0  0  0  0
  -21.3373   58.6247  -28.2010 N   0  0  0  0  0  0  0  0  0  0  0  0
  -24.4999   58.5502  -26.7895 N   0  0  0  0  0  0  0  0  0  0  0  0
  -23.8257   60.7683  -27.5709 N   0  0  0  0  0  0  0  0  0  0  0  0
  -24.9947   62.7286  -26.9051 N   0  0  0  0  0  0  0  0  0  0  0  0
  -26.6202   60.0636  -25.3384 N   0  0  0  0  0  0  0  0  0  0  0  0
  -26.8543   62.3343  -25.4271 N   0  0  0  0  0  0  0  0  0  0  0  0
  -21.8160   58.8156  -30.4943 O   0  0  0  0  0  0  0  0  0  0  0  0
  -23.7358   57.0592  -29.5128 H   0  0  0  0  0  0  0  0  0  0  0  0
  -24.3313   58.6913  -29.3022 H   0  0  0  0  0  0  0  0  0  0  0  0
  -23.6065   56.7407  -27.2373 H   0  0  0  0  0  0  0  0  0  0  0  0
  -22.1390   59.1032  -26.3176 H   0  0  0  0  0  0  0  0  0  0  0  0
  -21.5395   57.4446  -26.4544 H   0  0  0  0  0  0  0  0  0  0  0  0
  -19.4252   58.8914  -27.3894 H   0  0  0  0  0  0  0  0  0  0  0  0
  -19.5634   59.1683  -29.1650 H   0  0  0  0  0  0  0  0  0  0  0  0
  -20.3818   61.2507  -30.0625 H   0  0  0  0  0  0  0  0  0  0  0  0
  -20.7489   63.6886  -29.6612 H   0  0  0  0  0  0  0  0  0  0  0  0
  -20.8308   64.5720  -27.3259 H   0  0  0  0  0  0  0  0  0  0  0  0
  -20.5493   63.0169  -25.3910 H   0  0  0  0  0  0  0  0  0  0  0  0
  -20.1813   60.5790  -25.7914 H   0  0  0  0  0  0  0  0  0  0  0  0
  -23.3016   62.7442  -28.2112 H   0  0  0  0  0  0  0  0  0  0  0  0
  -28.1886   61.0938  -24.2533 H   0  0  0  0  0  0  0  0  0  0  0  0
  -25.1768   58.0128  -26.2293 H   0  0  0  0  0  0  0  0  0  0  0  0
  -26.7751   59.0732  -25.1017 H   0  0  0  0  0  0  0  0  0  0  0  0
  1  2  1  0
  1  4  1  0
  2  3  1  0
  2 18  1  0
  3 17  1  0
  5 17  1  0
  5  6  1  0
  7  8  2  0
  9 10  2  0
 11  6  2  0
 13 19  2  0
 14 20  2  0
 14 22  1  0
 15 21  1  0
 15 12  2  0
 17  4  1  0
 18 12  1  0
 21 16  1  0
  4 23  2  0
  6  7  1  0
  8  9  1  0
 10 11  1  0
 12 19  1  0
 13 20  1  0
 14 15  1  0
 16 22  2  0
  1 24  1  0
  1 25  1  0
  2 26  1  0
  3 27  1  0
  3 28  1  0
  5 29  1  0
  5 30  1  0
  7 31  1  0
  8 32  1  0
  9 33  1  0
 10 34  1  0
 11 35  1  0
 13 36  1  0
 16 37  1  0
 18 38  1  0
 21 39  1  0
M  END
>  <rmsd>  (20) 
0.111908242

$$$$
CHEMBL3393349
     RDKit          3D

 42 45  0  0  0  0  0  0  0  0999 V2000
  -19.2596   64.4332  -26.3633 C   0  0  0  0  0  0  0  0  0  0  0  0
  -19.5581   63.2438  -27.1089 C   0  0  0  0  0  0  0  0  0  0  0  0
  -20.7872   62.6016  -26.9357 C   0  0  0  0  0  0  0  0  0  0  0  0
  -21.0973   61.4525  -27.6759 C   0  0  0  0  0  0  0  0  0  0  0  0
  -20.1465   60.9308  -28.5639 C   0  0  0  0  0  0  0  0  0  0  0  0
  -18.9158   61.5715  -28.7365 C   0  0  0  0  0  0  0  0  0  0  0  0
  -18.6233   62.7302  -28.0118 C   0  0  0  0  0  0  0  0  0  0  0  0
  -22.3730   60.7475  -27.4676 C   0  0  0  0  0  0  0  0  0  0  0  0
  -23.6266   61.2694  -27.1969 C   0  0  0  0  0  0  0  0  0  0  0  0
  -24.4201   60.1990  -26.9023 C   0  0  0  0  0  0  0  0  0  0  0  0
  -26.2456   61.5984  -26.4832 C   0  0  0  0  0  0  0  0  0  0  0  0
  -24.1763   62.5587  -27.1890 C   0  0  0  0  0  0  0  0  0  0  0  0
  -23.0264   63.7220  -29.0591 C   0  0  0  0  0  0  0  0  0  0  0  0
  -21.8836   64.7196  -29.2377 C   0  0  0  0  0  0  0  0  0  0  0  0
  -22.4696   65.8996  -27.2682 C   0  0  0  0  0  0  0  0  0  0  0  0
  -23.6573   64.9836  -26.9879 C   0  0  0  0  0  0  0  0  0  0  0  0
  -21.1279   66.9023  -28.8956 C   0  0  0  0  0  0  0  0  0  0  0  0
  -22.5006   59.3645  -27.3467 C   0  0  0  0  0  0  0  0  0  0  0  0
  -19.0202   65.3929  -25.7627 N   0  0  0  0  0  0  0  0  0  0  0  0
  -25.7170   60.3421  -26.5385 N   0  0  0  0  0  0  0  0  0  0  0  0
  -25.4837   62.6862  -26.8119 N   0  0  0  0  0  0  0  0  0  0  0  0
  -23.4573   63.7027  -27.6613 N   0  0  0  0  0  0  0  0  0  0  0  0
  -22.2696   66.0260  -28.7099 N   0  0  0  0  0  0  0  0  0  0  0  0
  -23.7667   59.0294  -26.9981 N   0  0  0  0  0  0  0  0  0  0  0  0
  -21.5155   63.0003  -26.2142 H   0  0  0  0  0  0  0  0  0  0  0  0
  -20.3696   60.0130  -29.1277 H   0  0  0  0  0  0  0  0  0  0  0  0
  -18.1777   61.1636  -29.4427 H   0  0  0  0  0  0  0  0  0  0  0  0
  -17.6575   63.2377  -28.1521 H   0  0  0  0  0  0  0  0  0  0  0  0
  -27.2915   61.7378  -26.1722 H   0  0  0  0  0  0  0  0  0  0  0  0
  -22.6826   62.7180  -29.3486 H   0  0  0  0  0  0  0  0  0  0  0  0
  -23.8723   64.0232  -29.6945 H   0  0  0  0  0  0  0  0  0  0  0  0
  -20.9965   64.3569  -28.6978 H   0  0  0  0  0  0  0  0  0  0  0  0
  -21.6558   64.8176  -30.3094 H   0  0  0  0  0  0  0  0  0  0  0  0
  -21.5645   65.4741  -26.8102 H   0  0  0  0  0  0  0  0  0  0  0  0
  -22.6697   66.8935  -26.8414 H   0  0  0  0  0  0  0  0  0  0  0  0
  -23.7441   64.8178  -25.9039 H   0  0  0  0  0  0  0  0  0  0  0  0
  -24.5782   65.4539  -27.3631 H   0  0  0  0  0  0  0  0  0  0  0  0
  -20.7342   67.2045  -27.9140 H   0  0  0  0  0  0  0  0  0  0  0  0
  -20.3452   66.3708  -29.4568 H   0  0  0  0  0  0  0  0  0  0  0  0
  -21.4389   67.7958  -29.4568 H   0  0  0  0  0  0  0  0  0  0  0  0
  -21.6857   58.6443  -27.5116 H   0  0  0  0  0  0  0  0  0  0  0  0
  -24.1451   58.0844  -26.8410 H   0  0  0  0  0  0  0  0  0  0  0  0
  2  1  1  0
  3  4  2  0
  4  8  1  0
  5  6  2  0
  7  2  2  0
  8  9  1  0
  9 10  2  0
 10 24  1  0
 11 20  2  0
 12 21  2  0
 12 22  1  0
 13 22  1  0
 13 14  1  0
 14 23  1  0
 15 23  1  0
 15 16  1  0
 16 22  1  0
 17 23  1  0
 24 18  1  0
  2  3  1  0
  4  5  1  0
  6  7  1  0
 10 20  1  0
 11 21  1  0
 12  9  1  0
 18  8  2  0
  1 19  3  0
  3 25  1  0
  5 26  1  0
  6 27  1  0
  7 28  1  0
 11 29  1  0
 13 30  1  0
 13 31  1  0
 14 32  1  0
 14 33  1  0
 15 34  1  0
 15 35  1  0
 16 36  1  0
 16 37  1  0
 17 38  1  0
 17 39  1  0
 17 40  1  0
 18 41  1  0
 24 42  1  0
M  END
>  <rmsd>  (21) 
0.37469548

$$$$
CHEMBL3715062
     RDKit          3D

 44 46  0  0  0  0  0  0  0  0999 V2000
  -25.3107   60.3515  -26.6777 N   0  0  0  0  0  0  0  0  0  0  0  0
  -25.1020   62.7072  -26.8845 N   0  0  0  0  0  0  0  0  0  0  0  0
  -23.4653   58.8185  -27.0388 N   0  0  0  0  0  0  0  0  0  0  0  0
  -22.9108   63.5441  -27.3939 N   0  0  0  0  0  0  0  0  0  0  0  0
  -18.4603   58.9461  -27.8115 N   0  0  0  0  0  0  0  0  0  0  0  0
  -25.8633   61.6029  -26.6336 C   0  0  0  0  0  0  0  0  0  0  0  0
  -23.7894   62.5410  -27.1741 C   0  0  0  0  0  0  0  0  0  0  0  0
  -23.2121   61.2930  -27.2195 C   0  0  0  0  0  0  0  0  0  0  0  0
  -23.9918   60.1552  -26.9768 C   0  0  0  0  0  0  0  0  0  0  0  0
  -23.9322   57.8092  -26.0999 C   0  0  0  0  0  0  0  0  0  0  0  0
  -23.3529   58.0713  -24.7225 C   0  0  0  0  0  0  0  0  0  0  0  0
  -23.8543   57.0194  -23.7565 C   0  0  0  0  0  0  0  0  0  0  0  0
  -22.6280   58.3749  -28.1458 C   0  0  0  0  0  0  0  0  0  0  0  0
  -23.3949   58.4420  -29.4540 C   0  0  0  0  0  0  0  0  0  0  0  0
  -22.4883   58.0194  -30.5899 C   0  0  0  0  0  0  0  0  0  0  0  0
  -21.8773   61.5206  -27.4663 C   0  0  0  0  0  0  0  0  0  0  0  0
  -21.7409   62.8907  -27.5737 C   0  0  0  0  0  0  0  0  0  0  0  0
  -20.5008   63.4787  -27.8079 C   0  0  0  0  0  0  0  0  0  0  0  0
  -19.3844   62.6330  -27.9284 C   0  0  0  0  0  0  0  0  0  0  0  0
  -19.5161   61.2290  -27.8064 C   0  0  0  0  0  0  0  0  0  0  0  0
  -20.7840   60.6639  -27.5643 C   0  0  0  0  0  0  0  0  0  0  0  0
  -18.3329   60.3603  -27.9302 C   0  0  0  0  0  0  0  0  0  0  0  0
  -17.1961   60.8599  -28.1429 O   0  0  0  0  0  0  0  0  0  0  0  0
  -23.0889   64.5583  -27.4184 H   0  0  0  0  0  0  0  0  0  0  0  0
  -17.6286   58.3449  -27.8992 H   0  0  0  0  0  0  0  0  0  0  0  0
  -19.3841   58.5250  -27.6380 H   0  0  0  0  0  0  0  0  0  0  0  0
  -26.9305   61.7195  -26.3938 H   0  0  0  0  0  0  0  0  0  0  0  0
  -25.0303   57.8432  -26.0453 H   0  0  0  0  0  0  0  0  0  0  0  0
  -23.6054   56.8173  -26.4453 H   0  0  0  0  0  0  0  0  0  0  0  0
  -22.2548   58.0298  -24.7724 H   0  0  0  0  0  0  0  0  0  0  0  0
  -23.6665   59.0671  -24.3759 H   0  0  0  0  0  0  0  0  0  0  0  0
  -23.6910   57.3621  -22.7241 H   0  0  0  0  0  0  0  0  0  0  0  0
  -24.9289   56.8523  -23.9217 H   0  0  0  0  0  0  0  0  0  0  0  0
  -23.3074   56.0794  -23.9217 H   0  0  0  0  0  0  0  0  0  0  0  0
  -21.7422   59.0237  -28.2120 H   0  0  0  0  0  0  0  0  0  0  0  0
  -22.3233   57.3334  -27.9656 H   0  0  0  0  0  0  0  0  0  0  0  0
  -24.2622   57.7672  -29.4061 H   0  0  0  0  0  0  0  0  0  0  0  0
  -23.7419   59.4718  -29.6243 H   0  0  0  0  0  0  0  0  0  0  0  0
  -21.5632   57.5882  -30.1797 H   0  0  0  0  0  0  0  0  0  0  0  0
  -23.0009   57.2674  -31.2078 H   0  0  0  0  0  0  0  0  0  0  0  0
  -22.2419   58.8955  -31.2078 H   0  0  0  0  0  0  0  0  0  0  0  0
  -20.3979   64.5703  -27.8958 H   0  0  0  0  0  0  0  0  0  0  0  0
  -18.3930   63.0691  -28.1205 H   0  0  0  0  0  0  0  0  0  0  0  0
  -20.9067   59.5762  -27.4557 H   0  0  0  0  0  0  0  0  0  0  0  0
  4  7  1  0
  6  2  2  0
  7  8  2  0
  8 16  1  0
  9  3  1  0
  9  1  2  0
 10  3  1  0
 10 11  1  0
 11 12  1  0
 13  3  1  0
 13 14  1  0
 14 15  1  0
 17  4  1  0
 17 18  2  0
 19 20  2  0
 20 22  1  0
 21 16  2  0
 22  5  1  0
  6  1  1  0
  7  2  1  0
  8  9  1  0
 16 17  1  0
 18 19  1  0
 20 21  1  0
 22 23  2  0
  4 24  1  0
  5 25  1  0
  5 26  1  0
  6 27  1  0
 10 28  1  0
 10 29  1  0
 11 30  1  0
 11 31  1  0
 12 32  1  0
 12 33  1  0
 12 34  1  0
 13 35  1  0
 13 36  1  0
 14 37  1  0
 14 38  1  0
 15 39  1  0
 15 40  1  0
 15 41  1  0
 18 42  1  0
 19 43  1  0
 21 44  1  0
M  END
>  <rmsd>  (22) 
0.303525627

$$$$
CHEMBL3717493
     RDKit          3D

 41 44  0  0  0  0  0  0  0  0999 V2000
  -23.8717   56.2023  -28.0522 C   0  0  0  0  0  0  0  0  0  0  0  0
  -24.7315   56.7414  -26.9109 C   0  0  0  0  0  0  0  0  0  0  0  0
  -23.9625   57.8022  -26.1265 C   0  0  0  0  0  0  0  0  0  0  0  0
  -22.6678   58.3860  -28.1857 C   0  0  0  0  0  0  0  0  0  0  0  0
  -23.4460   57.3399  -28.9771 C   0  0  0  0  0  0  0  0  0  0  0  0
  -23.9906   60.1564  -26.9783 C   0  0  0  0  0  0  0  0  0  0  0  0
  -25.8645   61.6024  -26.6355 C   0  0  0  0  0  0  0  0  0  0  0  0
  -23.7896   62.5413  -27.1750 C   0  0  0  0  0  0  0  0  0  0  0  0
  -23.2124   61.2941  -27.2212 C   0  0  0  0  0  0  0  0  0  0  0  0
  -21.8779   61.5208  -27.4679 C   0  0  0  0  0  0  0  0  0  0  0  0
  -21.7410   62.8910  -27.5738 C   0  0  0  0  0  0  0  0  0  0  0  0
  -20.5004   63.4784  -27.8069 C   0  0  0  0  0  0  0  0  0  0  0  0
  -19.3845   62.6320  -27.9274 C   0  0  0  0  0  0  0  0  0  0  0  0
  -19.5167   61.2281  -27.8071 C   0  0  0  0  0  0  0  0  0  0  0  0
  -20.7855   60.6629  -27.5666 C   0  0  0  0  0  0  0  0  0  0  0  0
  -18.3328   60.3602  -27.9301 C   0  0  0  0  0  0  0  0  0  0  0  0
  -23.4617   58.8249  -27.0409 N   0  0  0  0  0  0  0  0  0  0  0  0
  -25.3099   60.3515  -26.6798 N   0  0  0  0  0  0  0  0  0  0  0  0
  -25.1023   62.7066  -26.8855 N   0  0  0  0  0  0  0  0  0  0  0  0
  -22.9108   63.5447  -27.3937 N   0  0  0  0  0  0  0  0  0  0  0  0
  -17.0465   60.9238  -28.1706 N   0  0  0  0  0  0  0  0  0  0  0  0
  -27.2441   61.7522  -26.3248 N   0  0  0  0  0  0  0  0  0  0  0  0
  -18.4465   59.1099  -27.8241 O   0  0  0  0  0  0  0  0  0  0  0  0
  -22.9759   55.7192  -27.6349 H   0  0  0  0  0  0  0  0  0  0  0  0
  -24.4589   55.4726  -28.6290 H   0  0  0  0  0  0  0  0  0  0  0  0
  -25.6469   57.1887  -27.3256 H   0  0  0  0  0  0  0  0  0  0  0  0
  -24.9909   55.9132  -26.2350 H   0  0  0  0  0  0  0  0  0  0  0  0
  -24.6321   58.2680  -25.3885 H   0  0  0  0  0  0  0  0  0  0  0  0
  -23.1144   57.3292  -25.6097 H   0  0  0  0  0  0  0  0  0  0  0  0
  -22.4512   59.2484  -28.8332 H   0  0  0  0  0  0  0  0  0  0  0  0
  -21.7243   57.9470  -27.8292 H   0  0  0  0  0  0  0  0  0  0  0  0
  -24.3396   57.8059  -29.4180 H   0  0  0  0  0  0  0  0  0  0  0  0
  -22.8051   56.9380  -29.7757 H   0  0  0  0  0  0  0  0  0  0  0  0
  -20.3967   64.5700  -27.8940 H   0  0  0  0  0  0  0  0  0  0  0  0
  -18.3927   63.0678  -28.1182 H   0  0  0  0  0  0  0  0  0  0  0  0
  -20.9091   59.5751  -27.4599 H   0  0  0  0  0  0  0  0  0  0  0  0
  -23.0887   64.5589  -27.4174 H   0  0  0  0  0  0  0  0  0  0  0  0
  -16.2233   60.3106  -28.2554 H   0  0  0  0  0  0  0  0  0  0  0  0
  -16.9399   61.9444  -28.2596 H   0  0  0  0  0  0  0  0  0  0  0  0
  -27.6652   62.6915  -26.2905 H   0  0  0  0  0  0  0  0  0  0  0  0
  -27.8222   60.9214  -26.1341 H   0  0  0  0  0  0  0  0  0  0  0  0
  1  2  1  0
  2  3  1  0
  3 17  1  0
  4 17  1  0
  4  5  1  0
  5  1  1  0
  7 18  2  0
  7 22  1  0
  8 19  2  0
  9 10  1  0
  9  6  2  0
 11 20  1  0
 11 12  2  0
 13 14  2  0
 14 16  1  0
 15 10  2  0
 16 21  1  0
 17  6  1  0
 20  8  1  0
  6 18  1  0
  7 19  1  0
  8  9  1  0
 10 11  1  0
 12 13  1  0
 14 15  1  0
 16 23  2  0
  1 24  1  0
  1 25  1  0
  2 26  1  0
  2 27  1  0
  3 28  1  0
  3 29  1  0
  4 30  1  0
  4 31  1  0
  5 32  1  0
  5 33  1  0
 12 34  1  0
 13 35  1  0
 15 36  1  0
 20 37  1  0
 21 38  1  0
 21 39  1  0
 22 40  1  0
 22 41  1  0
M  END
>  <rmsd>  (23) 
0.303962469

$$$$
CHEMBL3716812
     RDKit          3D

 42 45  0  0  0  0  0  0  0  0999 V2000
  -25.3284   60.3462  -26.7836 N   0  0  0  0  0  0  0  0  0  0  0  0
  -25.1027   62.7070  -26.8846 N   0  0  0  0  0  0  0  0  0  0  0  0
  -23.4472   58.8307  -26.9780 N   0  0  0  0  0  0  0  0  0  0  0  0
  -22.8904   63.5514  -27.2823 N   0  0  0  0  0  0  0  0  0  0  0  0
  -17.0973   60.9098  -28.4364 N   0  0  0  0  0  0  0  0  0  0  0  0
  -25.8836   61.5969  -26.7396 C   0  0  0  0  0  0  0  0  0  0  0  0
  -23.7712   62.5473  -27.0746 C   0  0  0  0  0  0  0  0  0  0  0  0
  -23.1943   61.3003  -27.1248 C   0  0  0  0  0  0  0  0  0  0  0  0
  -23.9870   60.1584  -26.9645 C   0  0  0  0  0  0  0  0  0  0  0  0
  -22.2964   58.4958  -26.1338 C   0  0  0  0  0  0  0  0  0  0  0  0
  -22.0227   56.9938  -26.1428 C   0  0  0  0  0  0  0  0  0  0  0  0
  -23.3024   56.2237  -25.8153 C   0  0  0  0  0  0  0  0  0  0  0  0
  -24.5046   56.6357  -26.6813 C   0  0  0  0  0  0  0  0  0  0  0  0
  -24.1890   57.7698  -27.6580 C   0  0  0  0  0  0  0  0  0  0  0  0
  -21.8654   61.5254  -27.3991 C   0  0  0  0  0  0  0  0  0  0  0  0
  -21.7231   62.8968  -27.4773 C   0  0  0  0  0  0  0  0  0  0  0  0
  -20.4924   63.4812  -27.7638 C   0  0  0  0  0  0  0  0  0  0  0  0
  -19.3940   62.6299  -27.9764 C   0  0  0  0  0  0  0  0  0  0  0  0
  -19.5368   61.2234  -27.9098 C   0  0  0  0  0  0  0  0  0  0  0  0
  -20.7968   60.6608  -27.6223 C   0  0  0  0  0  0  0  0  0  0  0  0
  -18.3738   60.3495  -28.1424 C   0  0  0  0  0  0  0  0  0  0  0  0
  -27.3478   61.7467  -26.5351 C   0  0  0  0  0  0  0  0  0  0  0  0
  -18.4970   59.0969  -28.0830 O   0  0  0  0  0  0  0  0  0  0  0  0
  -23.0654   64.5664  -27.2901 H   0  0  0  0  0  0  0  0  0  0  0  0
  -16.2887   60.2925  -28.5979 H   0  0  0  0  0  0  0  0  0  0  0  0
  -16.9830   61.9322  -28.4875 H   0  0  0  0  0  0  0  0  0  0  0  0
  -21.4087   59.0244  -26.5113 H   0  0  0  0  0  0  0  0  0  0  0  0
  -22.5210   58.8024  -25.1016 H   0  0  0  0  0  0  0  0  0  0  0  0
  -21.6636   56.6955  -27.1388 H   0  0  0  0  0  0  0  0  0  0  0  0
  -21.2599   56.7627  -25.3847 H   0  0  0  0  0  0  0  0  0  0  0  0
  -23.1128   55.1513  -25.9703 H   0  0  0  0  0  0  0  0  0  0  0  0
  -23.5611   56.4549  -24.7714 H   0  0  0  0  0  0  0  0  0  0  0  0
  -24.8348   55.7597  -27.2589 H   0  0  0  0  0  0  0  0  0  0  0  0
  -25.2859   57.0023  -25.9992 H   0  0  0  0  0  0  0  0  0  0  0  0
  -23.5827   57.3767  -28.4874 H   0  0  0  0  0  0  0  0  0  0  0  0
  -25.1322   58.1829  -28.0449 H   0  0  0  0  0  0  0  0  0  0  0  0
  -20.3829   64.5742  -27.8220 H   0  0  0  0  0  0  0  0  0  0  0  0
  -18.4078   63.0639  -28.1980 H   0  0  0  0  0  0  0  0  0  0  0  0
  -20.9321   59.5702  -27.5756 H   0  0  0  0  0  0  0  0  0  0  0  0
  -27.5671   61.7691  -25.4574 H   0  0  0  0  0  0  0  0  0  0  0  0
  -27.6887   62.6844  -26.9983 H   0  0  0  0  0  0  0  0  0  0  0  0
  -27.8715   60.8974  -26.9983 H   0  0  0  0  0  0  0  0  0  0  0  0
  4  7  1  0
  6  2  2  0
  7  8  2  0
  8 15  1  0
  9  3  1  0
  9  1  2  0
 10  3  1  0
 10 11  1  0
 11 12  1  0
 12 13  1  0
 13 14  1  0
 14  3  1  0
 16  4  1  0
 16 17  2  0
 18 19  2  0
 19 21  1  0
 20 15  2  0
 21  5  1  0
 22  6  1  0
  6  1  1  0
  7  2  1  0
  8  9  1  0
 15 16  1  0
 17 18  1  0
 19 20  1  0
 21 23  2  0
  4 24  1  0
  5 25  1  0
  5 26  1  0
 10 27  1  0
 10 28  1  0
 11 29  1  0
 11 30  1  0
 12 31  1  0
 12 32  1  0
 13 33  1  0
 13 34  1  0
 14 35  1  0
 14 36  1  0
 17 37  1  0
 18 38  1  0
 20 39  1  0
 22 40  1  0
 22 41  1  0
 22 42  1  0
M  END
>  <rmsd>  (24) 
0.303946197

$$$$
CHEMBL258838
     RDKit          3D

 45 49  0  0  0  0  0  0  0  0999 V2000
  -21.5761   64.1684  -29.2823 C   0  0  0  0  0  0  0  0  0  0  0  0
  -21.2796   65.5844  -28.7634 C   0  0  0  0  0  0  0  0  0  0  0  0
  -21.5294   66.6698  -29.8148 C   0  0  0  0  0  0  0  0  0  0  0  0
  -22.0189   65.1892  -31.6018 C   0  0  0  0  0  0  0  0  0  0  0  0
  -21.3743   64.0431  -30.7993 C   0  0  0  0  0  0  0  0  0  0  0  0
  -22.8464   67.3772  -31.6099 C   0  0  0  0  0  0  0  0  0  0  0  0
  -23.0183   63.7589  -28.8973 C   0  0  0  0  0  0  0  0  0  0  0  0
  -24.0099   61.9286  -27.4239 C   0  0  0  0  0  0  0  0  0  0  0  0
  -26.1023   62.1270  -26.2919 C   0  0  0  0  0  0  0  0  0  0  0  0
  -25.2344   60.0027  -26.7341 C   0  0  0  0  0  0  0  0  0  0  0  0
  -24.1450   60.5416  -27.3401 C   0  0  0  0  0  0  0  0  0  0  0  0
  -23.3774   59.5048  -27.8202 C   0  0  0  0  0  0  0  0  0  0  0  0
  -24.0802   58.3589  -27.4378 C   0  0  0  0  0  0  0  0  0  0  0  0
  -21.5225   62.2710  -27.8888 C   0  0  0  0  0  0  0  0  0  0  0  0
  -20.7347   63.1647  -28.5640 C   0  0  0  0  0  0  0  0  0  0  0  0
  -19.3396   63.0956  -28.4967 C   0  0  0  0  0  0  0  0  0  0  0  0
  -18.7578   62.0913  -27.7075 C   0  0  0  0  0  0  0  0  0  0  0  0
  -19.5692   61.1889  -26.9955 C   0  0  0  0  0  0  0  0  0  0  0  0
  -20.9673   61.2791  -27.0760 C   0  0  0  0  0  0  0  0  0  0  0  0
  -22.5674   66.2444  -30.7470 N   0  0  0  0  0  0  0  0  0  0  0  0
  -22.8982   62.5547  -28.0785 N   0  0  0  0  0  0  0  0  0  0  0  0
  -25.0143   62.6932  -26.9008 N   0  0  0  0  0  0  0  0  0  0  0  0
  -26.2179   60.7693  -26.2046 N   0  0  0  0  0  0  0  0  0  0  0  0
  -25.2225   58.6642  -26.7727 N   0  0  0  0  0  0  0  0  0  0  0  0
  -21.9250   65.7821  -27.8949 H   0  0  0  0  0  0  0  0  0  0  0  0
  -20.2127   65.6217  -28.4980 H   0  0  0  0  0  0  0  0  0  0  0  0
  -21.8500   67.5943  -29.3124 H   0  0  0  0  0  0  0  0  0  0  0  0
  -20.5985   66.8469  -30.3734 H   0  0  0  0  0  0  0  0  0  0  0  0
  -22.8333   64.7745  -32.2140 H   0  0  0  0  0  0  0  0  0  0  0  0
  -21.2312   65.6422  -32.2217 H   0  0  0  0  0  0  0  0  0  0  0  0
  -21.8174   63.0929  -31.1321 H   0  0  0  0  0  0  0  0  0  0  0  0
  -20.2912   64.0866  -30.9862 H   0  0  0  0  0  0  0  0  0  0  0  0
  -23.0644   68.2623  -30.9941 H   0  0  0  0  0  0  0  0  0  0  0  0
  -21.9711   67.5788  -32.2448 H   0  0  0  0  0  0  0  0  0  0  0  0
  -23.7152   67.1492  -32.2448 H   0  0  0  0  0  0  0  0  0  0  0  0
  -23.5021   64.5630  -28.3234 H   0  0  0  0  0  0  0  0  0  0  0  0
  -23.6336   63.5752  -29.7905 H   0  0  0  0  0  0  0  0  0  0  0  0
  -26.8886   62.7704  -25.8702 H   0  0  0  0  0  0  0  0  0  0  0  0
  -22.4301   59.5644  -28.3762 H   0  0  0  0  0  0  0  0  0  0  0  0
  -23.7470   57.3324  -27.6506 H   0  0  0  0  0  0  0  0  0  0  0  0
  -18.7131   63.8113  -29.0492 H   0  0  0  0  0  0  0  0  0  0  0  0
  -17.6626   62.0093  -27.6454 H   0  0  0  0  0  0  0  0  0  0  0  0
  -19.1057   60.4093  -26.3731 H   0  0  0  0  0  0  0  0  0  0  0  0
  -21.6102   60.5862  -26.5133 H   0  0  0  0  0  0  0  0  0  0  0  0
  -25.9216   58.0143  -26.3855 H   0  0  0  0  0  0  0  0  0  0  0  0
  1  2  1  0
  1  7  1  0
  1 15  1  0
  2  3  1  0
  3 20  1  0
  4 20  1  0
  4  5  1  0
  5  1  1  0
  6 20  1  0
  7 21  1  0
  9 22  2  0
 10 23  2  0
 11 12  1  0
 11  8  2  0
 13 24  1  0
 15 16  2  0
 17 18  2  0
 19 14  2  0
 21  8  1  0
 21 14  1  0
 24 10  1  0
  8 22  1  0
  9 23  1  0
 10 11  1  0
 12 13  2  0
 14 15  1  0
 16 17  1  0
 18 19  1  0
  2 25  1  0
  2 26  1  0
  3 27  1  0
  3 28  1  0
  4 29  1  0
  4 30  1  0
  5 31  1  0
  5 32  1  0
  6 33  1  0
  6 34  1  0
  6 35  1  0
  7 36  1  0
  7 37  1  0
  9 38  1  0
 12 39  1  0
 13 40  1  0
 16 41  1  0
 17 42  1  0
 18 43  1  0
 19 44  1  0
 24 45  1  0
M  END
>  <rmsd>  (25) 
0.158179834

$$$$
CHEMBL4448573
     RDKit          3D

 53 57  0  0  0  0  0  0  0  0999 V2000
  -22.6925   61.1334  -30.8854 C   0  0  0  0  0  0  0  0  0  0  0  0
  -21.9688   62.4687  -31.0579 C   0  0  0  0  0  0  0  0  0  0  0  0
  -21.9874   63.2890  -29.7609 C   0  0  0  0  0  0  0  0  0  0  0  0
  -23.4290   63.4701  -29.2596 C   0  0  0  0  0  0  0  0  0  0  0  0
  -24.1253   61.3743  -30.4245 C   0  0  0  0  0  0  0  0  0  0  0  0
  -24.7469   61.7503  -27.9837 C   0  0  0  0  0  0  0  0  0  0  0  0
  -25.4251   62.2470  -25.7438 C   0  0  0  0  0  0  0  0  0  0  0  0
  -25.8359   60.1194  -26.6154 C   0  0  0  0  0  0  0  0  0  0  0  0
  -25.2651   60.4607  -27.8017 C   0  0  0  0  0  0  0  0  0  0  0  0
  -25.3228   59.3535  -28.6196 C   0  0  0  0  0  0  0  0  0  0  0  0
  -25.9539   58.3821  -27.8393 C   0  0  0  0  0  0  0  0  0  0  0  0
  -21.0270   62.7366  -28.7352 C   0  0  0  0  0  0  0  0  0  0  0  0
  -19.6547   62.7514  -29.0175 C   0  0  0  0  0  0  0  0  0  0  0  0
  -18.7238   62.2551  -28.0928 C   0  0  0  0  0  0  0  0  0  0  0  0
  -19.1775   61.7444  -26.8729 C   0  0  0  0  0  0  0  0  0  0  0  0
  -20.5425   61.7291  -26.5768 C   0  0  0  0  0  0  0  0  0  0  0  0
  -21.4627   62.2244  -27.5029 C   0  0  0  0  0  0  0  0  0  0  0  0
  -16.6631   62.7276  -29.5487 C   0  0  0  0  0  0  0  0  0  0  0  0
  -15.1950   62.6550  -29.6544 C   0  0  0  0  0  0  0  0  0  0  0  0
  -14.4337   62.1282  -28.6007 C   0  0  0  0  0  0  0  0  0  0  0  0
  -13.0409   62.0590  -28.7000 C   0  0  0  0  0  0  0  0  0  0  0  0
  -12.3990   62.5161  -29.8540 C   0  0  0  0  0  0  0  0  0  0  0  0
  -13.1495   63.0424  -30.9087 C   0  0  0  0  0  0  0  0  0  0  0  0
  -14.5423   63.1118  -30.8094 C   0  0  0  0  0  0  0  0  0  0  0  0
  -24.1153   62.1799  -29.2060 N   0  0  0  0  0  0  0  0  0  0  0  0
  -24.8448   62.6146  -26.9276 N   0  0  0  0  0  0  0  0  0  0  0  0
  -25.9265   60.9888  -25.5812 N   0  0  0  0  0  0  0  0  0  0  0  0
  -26.2689   58.8521  -26.6072 N   0  0  0  0  0  0  0  0  0  0  0  0
  -17.3147   62.2552  -28.3594 N   0  0  0  0  0  0  0  0  0  0  0  0
  -17.3358   63.2032  -30.5036 O   0  0  0  0  0  0  0  0  0  0  0  0
  -22.7038   60.5981  -31.8463 H   0  0  0  0  0  0  0  0  0  0  0  0
  -22.1659   60.5316  -30.1300 H   0  0  0  0  0  0  0  0  0  0  0  0
  -20.9244   62.2751  -31.3437 H   0  0  0  0  0  0  0  0  0  0  0  0
  -22.4875   63.0446  -31.8385 H   0  0  0  0  0  0  0  0  0  0  0  0
  -21.6123   64.3020  -29.9686 H   0  0  0  0  0  0  0  0  0  0  0  0
  -23.4098   63.9127  -28.2527 H   0  0  0  0  0  0  0  0  0  0  0  0
  -23.9677   64.1326  -29.9531 H   0  0  0  0  0  0  0  0  0  0  0  0
  -24.6126   60.4091  -30.2221 H   0  0  0  0  0  0  0  0  0  0  0  0
  -24.6794   61.9066  -31.2117 H   0  0  0  0  0  0  0  0  0  0  0  0
  -25.4876   62.9710  -24.9180 H   0  0  0  0  0  0  0  0  0  0  0  0
  -24.9555   59.2566  -29.6519 H   0  0  0  0  0  0  0  0  0  0  0  0
  -26.1693   57.3595  -28.1828 H   0  0  0  0  0  0  0  0  0  0  0  0
  -19.3025   63.1577  -29.9771 H   0  0  0  0  0  0  0  0  0  0  0  0
  -18.4551   61.3523  -26.1419 H   0  0  0  0  0  0  0  0  0  0  0  0
  -20.8924   61.3271  -25.6145 H   0  0  0  0  0  0  0  0  0  0  0  0
  -22.5366   62.2132  -27.2652 H   0  0  0  0  0  0  0  0  0  0  0  0
  -14.9355   61.7674  -27.6908 H   0  0  0  0  0  0  0  0  0  0  0  0
  -12.4503   61.6447  -27.8696 H   0  0  0  0  0  0  0  0  0  0  0  0
  -11.3031   62.4616  -29.9321 H   0  0  0  0  0  0  0  0  0  0  0  0
  -12.6444   63.4021  -31.8172 H   0  0  0  0  0  0  0  0  0  0  0  0
  -15.1298   63.5269  -31.6416 H   0  0  0  0  0  0  0  0  0  0  0  0
  -26.7354   58.3487  -25.8391 H   0  0  0  0  0  0  0  0  0  0  0  0
  -16.7059   61.8765  -27.6199 H   0  0  0  0  0  0  0  0  0  0  0  0
  1  2  1  0
  2  3  1  0
  3  4  1  0
  3 12  1  0
  4 25  1  0
  5 25  1  0
  5  1  1  0
  7 26  2  0
  8 27  2  0
  9 10  1  0
  9  6  2  0
 11 28  1  0
 13 14  2  0
 14 29  1  0
 15 16  2  0
 17 12  2  0
 18 19  1  0
 20 21  2  0
 22 23  2  0
 24 19  2  0
 25  6  1  0
 28  8  1  0
 29 18  1  0
  6 26  1  0
  7 27  1  0
  8  9  1  0
 10 11  2  0
 12 13  1  0
 14 15  1  0
 16 17  1  0
 18 30  2  0
 19 20  1  0
 21 22  1  0
 23 24  1  0
  1 31  1  0
  1 32  1  0
  2 33  1  0
  2 34  1  0
  3 35  1  0
  4 36  1  0
  4 37  1  0
  5 38  1  0
  5 39  1  0
  7 40  1  0
 10 41  1  0
 11 42  1  0
 13 43  1  0
 15 44  1  0
 16 45  1  0
 17 46  1  0
 20 47  1  0
 21 48  1  0
 22 49  1  0
 23 50  1  0
 24 51  1  0
 28 52  1  0
 29 53  1  0
M  END
>  <rmsd>  (26) 
0.31873554

$$$$
CHEMBL4545883
     RDKit          3D

 56 59  0  0  0  0  0  0  0  0999 V2000
  -24.2638   57.4558  -28.0946 C   0  0  0  0  0  0  0  0  0  0  0  0
  -24.8461   57.5104  -26.6900 C   0  0  0  0  0  0  0  0  0  0  0  0
  -25.6721   56.2581  -26.4619 C   0  0  0  0  0  0  0  0  0  0  0  0
  -25.3250   60.0373  -26.7142 C   0  0  0  0  0  0  0  0  0  0  0  0
  -26.2623   61.0696  -26.5851 C   0  0  0  0  0  0  0  0  0  0  0  0
  -27.6127   60.8206  -26.3164 C   0  0  0  0  0  0  0  0  0  0  0  0
  -28.4944   61.8983  -26.2002 C   0  0  0  0  0  0  0  0  0  0  0  0
  -26.7337   63.4420  -26.6088 C   0  0  0  0  0  0  0  0  0  0  0  0
  -25.8181   62.3958  -26.7329 C   0  0  0  0  0  0  0  0  0  0  0  0
  -23.6106   61.6374  -27.1152 C   0  0  0  0  0  0  0  0  0  0  0  0
  -22.1929   61.9328  -27.3947 C   0  0  0  0  0  0  0  0  0  0  0  0
  -21.2619   60.8933  -27.5161 C   0  0  0  0  0  0  0  0  0  0  0  0
  -19.9236   61.1921  -27.7795 C   0  0  0  0  0  0  0  0  0  0  0  0
  -20.4105   63.5146  -27.8040 C   0  0  0  0  0  0  0  0  0  0  0  0
  -21.7575   63.2564  -27.5410 C   0  0  0  0  0  0  0  0  0  0  0  0
  -23.7333   57.5986  -25.6388 C   0  0  0  0  0  0  0  0  0  0  0  0
  -23.0452   55.6529  -24.5398 C   0  0  0  0  0  0  0  0  0  0  0  0
  -22.1963   54.3790  -24.5864 C   0  0  0  0  0  0  0  0  0  0  0  0
  -20.8543   54.6057  -25.2868 C   0  0  0  0  0  0  0  0  0  0  0  0
  -20.3956   56.0517  -25.1272 C   0  0  0  0  0  0  0  0  0  0  0  0
  -21.4404   57.0304  -25.6940 C   0  0  0  0  0  0  0  0  0  0  0  0
  -21.0152   57.4363  -27.0945 C   0  0  0  0  0  0  0  0  0  0  0  0
  -25.7298   58.6673  -26.5685 N   0  0  0  0  0  0  0  0  0  0  0  0
  -28.0416   63.1733  -26.3473 N   0  0  0  0  0  0  0  0  0  0  0  0
  -24.5112   62.6510  -26.9928 N   0  0  0  0  0  0  0  0  0  0  0  0
  -24.0257   60.3476  -26.9758 N   0  0  0  0  0  0  0  0  0  0  0  0
  -19.5283   62.4858  -27.9170 N   0  0  0  0  0  0  0  0  0  0  0  0
  -22.8068   56.4742  -25.7276 N   0  0  0  0  0  0  0  0  0  0  0  0
  -23.1702   57.3533  -28.0344 H   0  0  0  0  0  0  0  0  0  0  0  0
  -24.6839   56.5931  -28.6324 H   0  0  0  0  0  0  0  0  0  0  0  0
  -24.5162   58.3816  -28.6324 H   0  0  0  0  0  0  0  0  0  0  0  0
  -25.7859   56.0856  -25.3815 H   0  0  0  0  0  0  0  0  0  0  0  0
  -26.6644   56.3849  -26.9194 H   0  0  0  0  0  0  0  0  0  0  0  0
  -25.1649   55.3959  -26.9194 H   0  0  0  0  0  0  0  0  0  0  0  0
  -27.9758   59.7890  -26.1981 H   0  0  0  0  0  0  0  0  0  0  0  0
  -29.5584   61.7156  -25.9891 H   0  0  0  0  0  0  0  0  0  0  0  0
  -26.3980   64.4833  -26.7224 H   0  0  0  0  0  0  0  0  0  0  0  0
  -21.5833   59.8472  -27.4045 H   0  0  0  0  0  0  0  0  0  0  0  0
  -19.1881   60.3798  -27.8759 H   0  0  0  0  0  0  0  0  0  0  0  0
  -20.0626   64.5517  -27.9199 H   0  0  0  0  0  0  0  0  0  0  0  0
  -22.4724   64.0873  -27.4492 H   0  0  0  0  0  0  0  0  0  0  0  0
  -23.1734   58.5330  -25.7919 H   0  0  0  0  0  0  0  0  0  0  0  0
  -24.2027   57.5743  -24.6443 H   0  0  0  0  0  0  0  0  0  0  0  0
  -22.7812   56.2307  -23.6418 H   0  0  0  0  0  0  0  0  0  0  0  0
  -24.1079   55.3702  -24.5114 H   0  0  0  0  0  0  0  0  0  0  0  0
  -22.0063   54.0417  -23.5568 H   0  0  0  0  0  0  0  0  0  0  0  0
  -22.7530   53.6221  -25.1585 H   0  0  0  0  0  0  0  0  0  0  0  0
  -20.1001   53.9376  -24.8454 H   0  0  0  0  0  0  0  0  0  0  0  0
  -20.9763   54.3915  -26.3588 H   0  0  0  0  0  0  0  0  0  0  0  0
  -20.2459   56.2652  -24.0586 H   0  0  0  0  0  0  0  0  0  0  0  0
  -19.4556   56.1835  -25.6832 H   0  0  0  0  0  0  0  0  0  0  0  0
  -21.4784   57.8998  -25.0212 H   0  0  0  0  0  0  0  0  0  0  0  0
  -20.2209   58.1946  -27.0312 H   0  0  0  0  0  0  0  0  0  0  0  0
  -20.6382   56.5545  -27.6333 H   0  0  0  0  0  0  0  0  0  0  0  0
  -21.8786   57.8538  -27.6333 H   0  0  0  0  0  0  0  0  0  0  0  0
  -26.7224   58.4858  -26.3618 H   0  0  0  0  0  0  0  0  0  0  0  0
  1  2  1  0
  2  3  1  0
  2 23  1  0
  2 16  1  0
  4  5  2  0
  6  7  2  0
  8 24  2  0
  9 25  2  0
  9  5  1  0
 10 26  2  0
 10 11  1  0
 12 13  2  0
 14 27  2  0
 15 11  2  0
 16 28  1  0
 17 28  1  0
 17 18  1  0
 18 19  1  0
 19 20  1  0
 20 21  1  0
 21 22  1  0
 21 28  1  0
 23  4  1  0
  4 26  1  0
  5  6  1  0
  7 24  1  0
  8  9  1  0
 10 25  1  0
 11 12  1  0
 13 27  1  0
 14 15  1  0
  1 29  1  0
  1 30  1  0
  1 31  1  0
  3 32  1  0
  3 33  1  0
  3 34  1  0
  6 35  1  0
  7 36  1  0
  8 37  1  0
 12 38  1  0
 13 39  1  0
 14 40  1  0
 15 41  1  0
 16 42  1  0
 16 43  1  0
 17 44  1  0
 17 45  1  0
 18 46  1  0
 18 47  1  0
 19 48  1  0
 19 49  1  0
 20 50  1  0
 20 51  1  0
 21 52  1  0
 22 53  1  0
 22 54  1  0
 22 55  1  0
 23 56  1  0
M  END
>  <rmsd>  (27) 
0.455076814

$$$$
CHEMBL3715766
     RDKit          3D

 44 47  0  0  0  0  0  0  0  0999 V2000
  -27.3054   61.7571  -26.3086 C   0  0  0  0  0  0  0  0  0  0  0  0
  -25.8639   61.6014  -26.6340 C   0  0  0  0  0  0  0  0  0  0  0  0
  -23.7900   62.5419  -27.1746 C   0  0  0  0  0  0  0  0  0  0  0  0
  -23.2125   61.2949  -27.2209 C   0  0  0  0  0  0  0  0  0  0  0  0
  -21.8783   61.5213  -27.4674 C   0  0  0  0  0  0  0  0  0  0  0  0
  -21.7412   62.8914  -27.5734 C   0  0  0  0  0  0  0  0  0  0  0  0
  -20.5002   63.4783  -27.8066 C   0  0  0  0  0  0  0  0  0  0  0  0
  -19.3847   62.6313  -27.9274 C   0  0  0  0  0  0  0  0  0  0  0  0
  -19.5181   61.2282  -27.8071 C   0  0  0  0  0  0  0  0  0  0  0  0
  -20.7865   60.6626  -27.5663 C   0  0  0  0  0  0  0  0  0  0  0  0
  -18.3329   60.3646  -27.9311 C   0  0  0  0  0  0  0  0  0  0  0  0
  -15.9071   60.1481  -28.2947 C   0  0  0  0  0  0  0  0  0  0  0  0
  -23.9896   60.1571  -26.9773 C   0  0  0  0  0  0  0  0  0  0  0  0
  -22.6847   58.3955  -28.2047 C   0  0  0  0  0  0  0  0  0  0  0  0
  -22.3992   56.8965  -28.1551 C   0  0  0  0  0  0  0  0  0  0  0  0
  -23.6966   56.1208  -27.9251 C   0  0  0  0  0  0  0  0  0  0  0  0
  -24.5125   56.6324  -26.7262 C   0  0  0  0  0  0  0  0  0  0  0  0
  -23.8859   57.8471  -26.0393 C   0  0  0  0  0  0  0  0  0  0  0  0
  -25.1028   62.7064  -26.8846 N   0  0  0  0  0  0  0  0  0  0  0  0
  -22.9112   63.5453  -27.3933 N   0  0  0  0  0  0  0  0  0  0  0  0
  -25.3088   60.3507  -26.6779 N   0  0  0  0  0  0  0  0  0  0  0  0
  -23.4585   58.8272  -27.0368 N   0  0  0  0  0  0  0  0  0  0  0  0
  -18.4500   59.1121  -27.8250 O   0  0  0  0  0  0  0  0  0  0  0  0
  -17.0804   60.9368  -28.1669 O   0  0  0  0  0  0  0  0  0  0  0  0
  -27.4353   61.7711  -25.2164 H   0  0  0  0  0  0  0  0  0  0  0  0
  -27.6775   62.7007  -26.7343 H   0  0  0  0  0  0  0  0  0  0  0  0
  -27.8704   60.9148  -26.7343 H   0  0  0  0  0  0  0  0  0  0  0  0
  -20.3960   64.5699  -27.8935 H   0  0  0  0  0  0  0  0  0  0  0  0
  -18.3927   63.0664  -28.1185 H   0  0  0  0  0  0  0  0  0  0  0  0
  -20.9103   59.5748  -27.4596 H   0  0  0  0  0  0  0  0  0  0  0  0
  -15.5265   59.8923  -27.2948 H   0  0  0  0  0  0  0  0  0  0  0  0
  -16.1438   59.2250  -28.8442 H   0  0  0  0  0  0  0  0  0  0  0  0
  -15.1417   60.7158  -28.8442 H   0  0  0  0  0  0  0  0  0  0  0  0
  -23.2559   58.6219  -29.1171 H   0  0  0  0  0  0  0  0  0  0  0  0
  -21.7249   58.9329  -28.2044 H   0  0  0  0  0  0  0  0  0  0  0  0
  -21.9504   56.5801  -29.1082 H   0  0  0  0  0  0  0  0  0  0  0  0
  -21.7051   56.6898  -27.3271 H   0  0  0  0  0  0  0  0  0  0  0  0
  -24.3171   56.2040  -28.8296 H   0  0  0  0  0  0  0  0  0  0  0  0
  -23.4168   55.0799  -27.7057 H   0  0  0  0  0  0  0  0  0  0  0  0
  -25.5158   56.9112  -27.0807 H   0  0  0  0  0  0  0  0  0  0  0  0
  -24.5444   55.8205  -25.9847 H   0  0  0  0  0  0  0  0  0  0  0  0
  -24.6273   58.3089  -25.3707 H   0  0  0  0  0  0  0  0  0  0  0  0
  -23.0100   57.5195  -25.4600 H   0  0  0  0  0  0  0  0  0  0  0  0
  -23.0891   64.5596  -27.4170 H   0  0  0  0  0  0  0  0  0  0  0  0
  1  2  1  0
  2 21  2  0
  3 19  2  0
  4  5  1  0
  4 13  2  0
  6 20  1  0
  6  7  2  0
  8  9  2  0
  9 11  1  0
 10  5  2  0
 11 24  1  0
 12 24  1  0
 13 22  1  0
 14 22  1  0
 14 15  1  0
 15 16  1  0
 16 17  1  0
 17 18  1  0
 18 22  1  0
 20  3  1  0
  2 19  1  0
  3  4  1  0
  5  6  1  0
  7  8  1  0
  9 10  1  0
 11 23  2  0
 13 21  1  0
  1 25  1  0
  1 26  1  0
  1 27  1  0
  7 28  1  0
  8 29  1  0
 10 30  1  0
 12 31  1  0
 12 32  1  0
 12 33  1  0
 14 34  1  0
 14 35  1  0
 15 36  1  0
 15 37  1  0
 16 38  1  0
 16 39  1  0
 17 40  1  0
 17 41  1  0
 18 42  1  0
 18 43  1  0
 20 44  1  0
M  END
>  <rmsd>  (28) 
0.304201901

$$$$
CHEMBL3669559
     RDKit          3D

 57 62  0  0  0  0  0  0  0  0999 V2000
  -22.4402   61.6414  -31.3515 O   0  0  0  0  0  0  0  0  0  0  0  0
  -22.3662   62.8486  -31.7110 C   0  0  0  0  0  0  0  0  0  0  0  0
  -19.8743   62.9921  -31.3867 C   0  0  0  0  0  0  0  0  0  0  0  0
  -19.9305   63.3925  -29.9470 C   0  0  0  0  0  0  0  0  0  0  0  0
  -19.7120   64.6690  -29.4408 C   0  0  0  0  0  0  0  0  0  0  0  0
  -20.3658   63.4494  -27.7966 C   0  0  0  0  0  0  0  0  0  0  0  0
  -20.7615   62.9913  -26.5413 C   0  0  0  0  0  0  0  0  0  0  0  0
  -21.1523   61.6445  -26.4305 C   0  0  0  0  0  0  0  0  0  0  0  0
  -21.1409   60.7992  -27.5606 C   0  0  0  0  0  0  0  0  0  0  0  0
  -20.7400   61.2901  -28.8156 C   0  0  0  0  0  0  0  0  0  0  0  0
  -20.3553   62.6277  -28.8894 C   0  0  0  0  0  0  0  0  0  0  0  0
  -21.0287   64.4665  -33.0675 C   0  0  0  0  0  0  0  0  0  0  0  0
  -22.1303   65.4910  -32.8228 C   0  0  0  0  0  0  0  0  0  0  0  0
  -23.4888   64.7864  -32.7849 C   0  0  0  0  0  0  0  0  0  0  0  0
  -23.5753   63.7579  -31.6500 C   0  0  0  0  0  0  0  0  0  0  0  0
  -23.5445   64.5177  -30.3046 C   0  0  0  0  0  0  0  0  0  0  0  0
  -24.7106   64.1893  -29.3762 C   0  0  0  0  0  0  0  0  0  0  0  0
  -25.2032   62.0683  -30.6372 C   0  0  0  0  0  0  0  0  0  0  0  0
  -24.8863   62.9687  -31.8395 C   0  0  0  0  0  0  0  0  0  0  0  0
  -24.8295   62.0303  -28.1219 C   0  0  0  0  0  0  0  0  0  0  0  0
  -24.7113   62.0768  -25.7326 C   0  0  0  0  0  0  0  0  0  0  0  0
  -24.5805   60.0266  -26.8423 C   0  0  0  0  0  0  0  0  0  0  0  0
  -24.4688   58.4734  -28.2926 C   0  0  0  0  0  0  0  0  0  0  0  0
  -24.6261   59.6571  -29.0166 C   0  0  0  0  0  0  0  0  0  0  0  0
  -24.6997   60.6373  -28.0512 C   0  0  0  0  0  0  0  0  0  0  0  0
  -21.0941   63.4077  -32.0674 N   0  0  0  0  0  0  0  0  0  0  0  0
  -19.9729   64.6975  -28.1091 N   0  0  0  0  0  0  0  0  0  0  0  0
  -24.9361   62.7482  -29.3667 N   0  0  0  0  0  0  0  0  0  0  0  0
  -24.8264   62.7154  -26.9377 N   0  0  0  0  0  0  0  0  0  0  0  0
  -24.5863   60.7200  -25.6793 N   0  0  0  0  0  0  0  0  0  0  0  0
  -24.4388   58.7003  -26.9565 N   0  0  0  0  0  0  0  0  0  0  0  0
  -19.7721   61.8991  -31.4571 H   0  0  0  0  0  0  0  0  0  0  0  0
  -19.0108   63.4789  -31.8635 H   0  0  0  0  0  0  0  0  0  0  0  0
  -19.3759   65.5319  -30.0344 H   0  0  0  0  0  0  0  0  0  0  0  0
  -20.7680   63.6596  -25.6676 H   0  0  0  0  0  0  0  0  0  0  0  0
  -21.4694   61.2470  -25.4551 H   0  0  0  0  0  0  0  0  0  0  0  0
  -21.4481   59.7479  -27.4587 H   0  0  0  0  0  0  0  0  0  0  0  0
  -20.7303   60.6432  -29.7052 H   0  0  0  0  0  0  0  0  0  0  0  0
  -20.0496   64.9642  -33.0062 H   0  0  0  0  0  0  0  0  0  0  0  0
  -21.1642   64.0256  -34.0661 H   0  0  0  0  0  0  0  0  0  0  0  0
  -21.9532   65.9963  -31.8619 H   0  0  0  0  0  0  0  0  0  0  0  0
  -22.1262   66.2324  -33.6354 H   0  0  0  0  0  0  0  0  0  0  0  0
  -24.2757   65.5412  -32.6399 H   0  0  0  0  0  0  0  0  0  0  0  0
  -23.6189   64.2512  -33.7371 H   0  0  0  0  0  0  0  0  0  0  0  0
  -22.6082   64.2640  -29.7860 H   0  0  0  0  0  0  0  0  0  0  0  0
  -23.6214   65.5887  -30.5435 H   0  0  0  0  0  0  0  0  0  0  0  0
  -24.4747   64.5299  -28.3572 H   0  0  0  0  0  0  0  0  0  0  0  0
  -25.6175   64.6991  -29.7335 H   0  0  0  0  0  0  0  0  0  0  0  0
  -24.5804   61.1634  -30.6953 H   0  0  0  0  0  0  0  0  0  0  0  0
  -26.2726   61.8131  -30.6718 H   0  0  0  0  0  0  0  0  0  0  0  0
  -24.7942   62.3402  -32.7376 H   0  0  0  0  0  0  0  0  0  0  0  0
  -25.7054   63.6960  -31.9404 H   0  0  0  0  0  0  0  0  0  0  0  0
  -24.7197   62.6618  -24.8011 H   0  0  0  0  0  0  0  0  0  0  0  0
  -24.3800   57.4774  -28.7510 H   0  0  0  0  0  0  0  0  0  0  0  0
  -24.6791   59.7791  -30.1085 H   0  0  0  0  0  0  0  0  0  0  0  0
  -19.8881   65.5033  -27.4731 H   0  0  0  0  0  0  0  0  0  0  0  0
  -24.3313   58.0090  -26.2005 H   0  0  0  0  0  0  0  0  0  0  0  0
  2 26  1  0
  3 26  1  0
  3  4  1  0
  5 27  1  0
  7  8  2  0
  9 10  2  0
 11  4  1  0
 11  6  2  0
 12 26  1  0
 12 13  1  0
 13 14  1  0
 14 15  1  0
 15 16  1  0
 15  2  1  0
 16 17  1  0
 17 28  1  0
 18 28  1  0
 18 19  1  0
 19 15  1  0
 21 29  2  0
 22 30  2  0
 22 31  1  0
 24 25  1  0
 25 20  2  0
 27  6  1  0
 28 20  1  0
 31 23  1  0
  2  1  2  0
  4  5  2  0
  6  7  1  0
  8  9  1  0
 10 11  1  0
 20 29  1  0
 21 30  1  0
 23 24  2  0
 25 22  1  0
  3 32  1  0
  3 33  1  0
  5 34  1  0
  7 35  1  0
  8 36  1  0
  9 37  1  0
 10 38  1  0
 12 39  1  0
 12 40  1  0
 13 41  1  0
 13 42  1  0
 14 43  1  0
 14 44  1  0
 16 45  1  0
 16 46  1  0
 17 47  1  0
 17 48  1  0
 18 49  1  0
 18 50  1  0
 19 51  1  0
 19 52  1  0
 21 53  1  0
 23 54  1  0
 24 55  1  0
 27 56  1  0
 31 57  1  0
M  END
>  <rmsd>  (29) 
0.320885867

$$$$
CHEMBL3393341
     RDKit          3D

 43 46  0  0  0  0  0  0  0  0999 V2000
  -23.0198   67.1467  -28.4249 C   0  0  0  0  0  0  0  0  0  0  0  0
  -22.5431   65.8328  -27.8440 C   0  0  0  0  0  0  0  0  0  0  0  0
  -21.7178   66.0960  -26.5893 C   0  0  0  0  0  0  0  0  0  0  0  0
  -21.2375   64.7764  -25.9958 C   0  0  0  0  0  0  0  0  0  0  0  0
  -22.4291   63.8820  -25.6636 C   0  0  0  0  0  0  0  0  0  0  0  0
  -23.7452   64.9579  -27.5046 C   0  0  0  0  0  0  0  0  0  0  0  0
  -24.1249   62.5716  -26.9165 C   0  0  0  0  0  0  0  0  0  0  0  0
  -26.2937   61.5864  -26.7481 C   0  0  0  0  0  0  0  0  0  0  0  0
  -24.4158   60.2001  -26.8818 C   0  0  0  0  0  0  0  0  0  0  0  0
  -22.4502   59.3782  -27.0790 C   0  0  0  0  0  0  0  0  0  0  0  0
  -22.3117   60.7640  -27.1371 C   0  0  0  0  0  0  0  0  0  0  0  0
  -21.0616   61.4645  -27.4734 C   0  0  0  0  0  0  0  0  0  0  0  0
  -19.8440   61.0183  -26.9415 C   0  0  0  0  0  0  0  0  0  0  0  0
  -18.6471   61.6495  -27.2930 C   0  0  0  0  0  0  0  0  0  0  0  0
  -18.6593   62.7214  -28.1899 C   0  0  0  0  0  0  0  0  0  0  0  0
  -19.8674   63.1575  -28.7407 C   0  0  0  0  0  0  0  0  0  0  0  0
  -21.0633   62.5253  -28.3893 C   0  0  0  0  0  0  0  0  0  0  0  0
  -19.8820   64.2563  -29.6639 C   0  0  0  0  0  0  0  0  0  0  0  0
  -23.5878   61.2793  -26.9884 C   0  0  0  0  0  0  0  0  0  0  0  0
  -23.3033   63.7401  -26.8285 N   0  0  0  0  0  0  0  0  0  0  0  0
  -25.4827   62.6865  -26.8121 N   0  0  0  0  0  0  0  0  0  0  0  0
  -25.7594   60.3314  -26.7710 N   0  0  0  0  0  0  0  0  0  0  0  0
  -23.7514   59.0334  -26.9197 N   0  0  0  0  0  0  0  0  0  0  0  0
  -19.8949   65.1430  -30.4074 N   0  0  0  0  0  0  0  0  0  0  0  0
  -23.2710   67.8391  -27.6079 H   0  0  0  0  0  0  0  0  0  0  0  0
  -22.2231   67.5842  -29.0445 H   0  0  0  0  0  0  0  0  0  0  0  0
  -23.9117   66.9716  -29.0445 H   0  0  0  0  0  0  0  0  0  0  0  0
  -21.9161   65.3117  -28.5824 H   0  0  0  0  0  0  0  0  0  0  0  0
  -20.8477   66.7169  -26.8490 H   0  0  0  0  0  0  0  0  0  0  0  0
  -22.3415   66.6192  -25.8496 H   0  0  0  0  0  0  0  0  0  0  0  0
  -20.5911   64.2646  -26.7239 H   0  0  0  0  0  0  0  0  0  0  0  0
  -20.6752   64.9819  -25.0730 H   0  0  0  0  0  0  0  0  0  0  0  0
  -22.0637   62.8892  -25.3620 H   0  0  0  0  0  0  0  0  0  0  0  0
  -23.0007   64.3407  -24.8433 H   0  0  0  0  0  0  0  0  0  0  0  0
  -24.2729   64.6887  -28.4315 H   0  0  0  0  0  0  0  0  0  0  0  0
  -24.4204   65.5153  -26.8387 H   0  0  0  0  0  0  0  0  0  0  0  0
  -27.3839   61.7148  -26.6777 H   0  0  0  0  0  0  0  0  0  0  0  0
  -21.6179   58.6627  -27.1523 H   0  0  0  0  0  0  0  0  0  0  0  0
  -19.8301   60.1676  -26.2443 H   0  0  0  0  0  0  0  0  0  0  0  0
  -17.6957   61.3025  -26.8636 H   0  0  0  0  0  0  0  0  0  0  0  0
  -17.7182   63.2216  -28.4622 H   0  0  0  0  0  0  0  0  0  0  0  0
  -22.0112   62.8622  -28.8341 H   0  0  0  0  0  0  0  0  0  0  0  0
  -24.1446   58.0844  -26.8442 H   0  0  0  0  0  0  0  0  0  0  0  0
  2  1  1  0
  2  3  1  0
  3  4  1  0
  4  5  1  0
  5 20  1  0
  6 20  1  0
  6  2  1  0
  8 21  2  0
  9 22  2  0
  9 23  1  0
 11 12  1  0
 11 19  1  0
 13 14  2  0
 15 16  2  0
 16 18  1  0
 17 12  2  0
 19  7  2  0
 20  7  1  0
 23 10  1  0
  7 21  1  0
  8 22  1  0
 10 11  2  0
 12 13  1  0
 14 15  1  0
 16 17  1  0
 19  9  1  0
 18 24  3  0
  1 25  1  0
  1 26  1  0
  1 27  1  0
  2 28  1  0
  3 29  1  0
  3 30  1  0
  4 31  1  0
  4 32  1  0
  5 33  1  0
  5 34  1  0
  6 35  1  0
  6 36  1  0
  8 37  1  0
 10 38  1  0
 13 39  1  0
 14 40  1  0
 15 41  1  0
 17 42  1  0
 23 43  1  0
M  END
>  <rmsd>  (30) 
0.373025686

$$$$
CHEMBL2152300
     RDKit          3D

 39 42  0  0  0  0  0  0  0  0999 V2000
  -17.7671   56.8853  -24.6156 N   0  0  0  0  0  0  0  0  0  0  0  0
  -22.5105   57.4251  -25.6945 N   0  0  0  0  0  0  0  0  0  0  0  0
  -23.9928   60.5912  -26.9926 N   0  0  0  0  0  0  0  0  0  0  0  0
  -25.2338   62.4839  -26.8485 N   0  0  0  0  0  0  0  0  0  0  0  0
  -22.0225   64.1348  -27.5199 N   0  0  0  0  0  0  0  0  0  0  0  0
  -19.9717   62.9107  -27.8522 N   0  0  0  0  0  0  0  0  0  0  0  0
  -18.7904   57.3730  -24.8486 C   0  0  0  0  0  0  0  0  0  0  0  0
  -20.0888   57.9934  -25.1444 C   0  0  0  0  0  0  0  0  0  0  0  0
  -21.1813   56.9842  -25.3799 C   0  0  0  0  0  0  0  0  0  0  0  0
  -23.5870   56.4581  -25.8980 C   0  0  0  0  0  0  0  0  0  0  0  0
  -24.3467   56.7940  -27.1789 C   0  0  0  0  0  0  0  0  0  0  0  0
  -24.8079   58.2493  -27.1528 C   0  0  0  0  0  0  0  0  0  0  0  0
  -23.6021   59.1813  -26.9920 C   0  0  0  0  0  0  0  0  0  0  0  0
  -25.2285   61.1226  -26.7881 C   0  0  0  0  0  0  0  0  0  0  0  0
  -23.9491   62.7905  -27.0996 C   0  0  0  0  0  0  0  0  0  0  0  0
  -23.3712   64.0608  -27.2648 C   0  0  0  0  0  0  0  0  0  0  0  0
  -21.2857   62.9850  -27.6067 C   0  0  0  0  0  0  0  0  0  0  0  0
  -19.7035   61.5785  -27.8461 C   0  0  0  0  0  0  0  0  0  0  0  0
  -20.8459   60.8082  -27.5974 C   0  0  0  0  0  0  0  0  0  0  0  0
  -21.8395   61.7453  -27.4482 C   0  0  0  0  0  0  0  0  0  0  0  0
  -23.2009   61.6547  -27.1872 C   0  0  0  0  0  0  0  0  0  0  0  0
  -22.8497   58.8455  -25.7057 C   0  0  0  0  0  0  0  0  0  0  0  0
  -20.9339   55.7478  -25.3096 O   0  0  0  0  0  0  0  0  0  0  0  0
  -19.3135   63.6871  -28.0099 H   0  0  0  0  0  0  0  0  0  0  0  0
  -20.3758   58.6291  -24.2938 H   0  0  0  0  0  0  0  0  0  0  0  0
  -19.9727   58.5758  -26.0703 H   0  0  0  0  0  0  0  0  0  0  0  0
  -23.1599   55.4478  -25.9807 H   0  0  0  0  0  0  0  0  0  0  0  0
  -24.2786   56.4985  -25.0436 H   0  0  0  0  0  0  0  0  0  0  0  0
  -23.6862   56.6377  -28.0446 H   0  0  0  0  0  0  0  0  0  0  0  0
  -25.2277   56.1398  -27.2554 H   0  0  0  0  0  0  0  0  0  0  0  0
  -25.3258   58.4837  -28.0945 H   0  0  0  0  0  0  0  0  0  0  0  0
  -25.4913   58.3951  -26.3033 H   0  0  0  0  0  0  0  0  0  0  0  0
  -22.9425   59.0219  -27.8577 H   0  0  0  0  0  0  0  0  0  0  0  0
  -26.1269   60.5181  -26.5947 H   0  0  0  0  0  0  0  0  0  0  0  0
  -23.9824   64.9725  -27.1918 H   0  0  0  0  0  0  0  0  0  0  0  0
  -18.7033   61.1539  -28.0170 H   0  0  0  0  0  0  0  0  0  0  0  0
  -20.9283   59.7130  -27.5360 H   0  0  0  0  0  0  0  0  0  0  0  0
  -21.9274   59.4428  -25.6543 H   0  0  0  0  0  0  0  0  0  0  0  0
  -23.4861   59.0765  -24.8387 H   0  0  0  0  0  0  0  0  0  0  0  0
  3 14  1  0
  6 18  1  0
  8  7  1  0
  8  9  1  0
  9  2  1  0
 10  2  1  0
 10 11  1  0
 11 12  1  0
 12 13  1  0
 13  3  1  0
 13 22  1  0
 15  4  1  0
 16  5  2  0
 17  6  1  0
 19 20  1  0
 20 17  2  0
 21  3  1  0
 21 15  2  0
 22  2  1  0
  9 23  2  0
 14  4  2  0
 15 16  1  0
 17  5  1  0
 18 19  2  0
 20 21  1  0
  7  1  3  0
  6 24  1  0
  8 25  1  0
  8 26  1  0
 10 27  1  0
 10 28  1  0
 11 29  1  0
 11 30  1  0
 12 31  1  0
 12 32  1  0
 13 33  1  0
 14 34  1  0
 16 35  1  0
 18 36  1  0
 19 37  1  0
 22 38  1  0
 22 39  1  0
M  END
>  <rmsd>  (31) 
0.528697848

$$$$
CHEMBL2314501
     RDKit          3D

 46 49  0  0  0  0  0  0  0  0999 V2000
  -26.4575   60.5754  -26.5235 N   0  0  0  0  0  0  0  0  0  0  0  0
  -25.4790   62.7153  -26.8139 N   0  0  0  0  0  0  0  0  0  0  0  0
  -25.1946   58.5005  -26.6653 N   0  0  0  0  0  0  0  0  0  0  0  0
  -26.4599   55.8351  -27.9833 N   0  0  0  0  0  0  0  0  0  0  0  0
  -23.1269   62.7347  -27.2588 N   0  0  0  0  0  0  0  0  0  0  0  0
  -27.8396   62.5481  -26.3540 N   0  0  0  0  0  0  0  0  0  0  0  0
  -26.5727   61.9384  -26.5674 C   0  0  0  0  0  0  0  0  0  0  0  0
  -24.2854   62.1079  -27.0125 C   0  0  0  0  0  0  0  0  0  0  0  0
  -24.1456   60.7527  -26.9740 C   0  0  0  0  0  0  0  0  0  0  0  0
  -25.2616   59.9411  -26.7236 C   0  0  0  0  0  0  0  0  0  0  0  0
  -26.4076   57.7385  -26.3865 C   0  0  0  0  0  0  0  0  0  0  0  0
  -26.9594   57.1842  -27.6943 C   0  0  0  0  0  0  0  0  0  0  0  0
  -24.9971   55.6745  -27.8981 C   0  0  0  0  0  0  0  0  0  0  0  0
  -24.1876   56.9226  -28.2566 C   0  0  0  0  0  0  0  0  0  0  0  0
  -23.9785   57.7662  -27.0058 C   0  0  0  0  0  0  0  0  0  0  0  0
  -26.8520   55.5219  -29.3463 C   0  0  0  0  0  0  0  0  0  0  0  0
  -22.8175   60.4644  -27.2062 C   0  0  0  0  0  0  0  0  0  0  0  0
  -22.2317   61.7226  -27.3770 C   0  0  0  0  0  0  0  0  0  0  0  0
  -20.8016   61.9464  -27.6546 C   0  0  0  0  0  0  0  0  0  0  0  0
  -20.3097   63.2505  -27.8091 C   0  0  0  0  0  0  0  0  0  0  0  0
  -18.9542   63.4684  -28.0728 C   0  0  0  0  0  0  0  0  0  0  0  0
  -18.0806   62.3833  -28.1838 C   0  0  0  0  0  0  0  0  0  0  0  0
  -18.5621   61.0803  -28.0313 C   0  0  0  0  0  0  0  0  0  0  0  0
  -19.9175   60.8624  -27.7677 C   0  0  0  0  0  0  0  0  0  0  0  0
  -22.9563   63.7473  -27.3394 H   0  0  0  0  0  0  0  0  0  0  0  0
  -28.6673   61.9641  -26.1676 H   0  0  0  0  0  0  0  0  0  0  0  0
  -27.9295   63.5737  -26.3858 H   0  0  0  0  0  0  0  0  0  0  0  0
  -26.1724   56.9081  -25.7045 H   0  0  0  0  0  0  0  0  0  0  0  0
  -27.1564   58.3926  -25.9158 H   0  0  0  0  0  0  0  0  0  0  0  0
  -28.0568   57.1482  -27.6280 H   0  0  0  0  0  0  0  0  0  0  0  0
  -26.6270   57.8469  -28.5070 H   0  0  0  0  0  0  0  0  0  0  0  0
  -24.7447   55.3888  -26.8663 H   0  0  0  0  0  0  0  0  0  0  0  0
  -24.7280   54.9095  -28.6413 H   0  0  0  0  0  0  0  0  0  0  0  0
  -23.2111   56.6222  -28.6642 H   0  0  0  0  0  0  0  0  0  0  0  0
  -24.7329   57.5106  -29.0096 H   0  0  0  0  0  0  0  0  0  0  0  0
  -23.7086   57.1072  -26.1674 H   0  0  0  0  0  0  0  0  0  0  0  0
  -23.1727   58.4896  -27.1994 H   0  0  0  0  0  0  0  0  0  0  0  0
  -27.7114   54.8354  -29.3321 H   0  0  0  0  0  0  0  0  0  0  0  0
  -27.1313   56.4483  -29.8695 H   0  0  0  0  0  0  0  0  0  0  0  0
  -26.0102   55.0448  -29.8695 H   0  0  0  0  0  0  0  0  0  0  0  0
  -22.3331   59.4777  -27.2474 H   0  0  0  0  0  0  0  0  0  0  0  0
  -20.9944   64.1070  -27.7223 H   0  0  0  0  0  0  0  0  0  0  0  0
  -18.5752   64.4941  -28.1929 H   0  0  0  0  0  0  0  0  0  0  0  0
  -17.0140   62.5548  -28.3912 H   0  0  0  0  0  0  0  0  0  0  0  0
  -17.8745   60.2261  -28.1187 H   0  0  0  0  0  0  0  0  0  0  0  0
  -20.2932   59.8355  -27.6482 H   0  0  0  0  0  0  0  0  0  0  0  0
  5  8  1  0
  7  2  2  0
  7  6  1  0
  8  9  2  0
  9 17  1  0
 10  3  1  0
 10  1  2  0
 11  3  1  0
 11 12  1  0
 12  4  1  0
 13  4  1  0
 13 14  1  0
 14 15  1  0
 15  3  1  0
 16  4  1  0
 18  5  1  0
 18 19  1  0
 20 21  2  0
 22 23  2  0
 24 19  2  0
  7  1  1  0
  8  2  1  0
  9 10  1  0
 17 18  2  0
 19 20  1  0
 21 22  1  0
 23 24  1  0
  5 25  1  0
  6 26  1  0
  6 27  1  0
 11 28  1  0
 11 29  1  0
 12 30  1  0
 12 31  1  0
 13 32  1  0
 13 33  1  0
 14 34  1  0
 14 35  1  0
 15 36  1  0
 15 37  1  0
 16 38  1  0
 16 39  1  0
 16 40  1  0
 17 41  1  0
 20 42  1  0
 21 43  1  0
 22 44  1  0
 23 45  1  0
 24 46  1  0
M  END
>  <rmsd>  (32) 
0.626891732

$$$$
CHEMBL3393342
     RDKit          3D

 43 46  0  0  0  0  0  0  0  0999 V2000
  -19.8915   64.2496  -29.6703 C   0  0  0  0  0  0  0  0  0  0  0  0
  -19.8724   63.1543  -28.7432 C   0  0  0  0  0  0  0  0  0  0  0  0
  -21.0667   62.5238  -28.3839 C   0  0  0  0  0  0  0  0  0  0  0  0
  -21.0609   61.4649  -27.4658 C   0  0  0  0  0  0  0  0  0  0  0  0
  -19.8411   61.0196  -26.9383 C   0  0  0  0  0  0  0  0  0  0  0  0
  -18.6457   61.6501  -27.2968 C   0  0  0  0  0  0  0  0  0  0  0  0
  -18.6618   62.7196  -28.1967 C   0  0  0  0  0  0  0  0  0  0  0  0
  -22.3095   60.7639  -27.1257 C   0  0  0  0  0  0  0  0  0  0  0  0
  -23.5858   61.2789  -26.9804 C   0  0  0  0  0  0  0  0  0  0  0  0
  -24.4148   60.1998  -26.8822 C   0  0  0  0  0  0  0  0  0  0  0  0
  -26.2929   61.5868  -26.7585 C   0  0  0  0  0  0  0  0  0  0  0  0
  -24.1227   62.5713  -26.9080 C   0  0  0  0  0  0  0  0  0  0  0  0
  -23.6902   64.9285  -27.5657 C   0  0  0  0  0  0  0  0  0  0  0  0
  -22.9681   66.1767  -27.0679 C   0  0  0  0  0  0  0  0  0  0  0  0
  -21.4814   65.8822  -26.9263 C   0  0  0  0  0  0  0  0  0  0  0  0
  -21.2054   64.7494  -25.9301 C   0  0  0  0  0  0  0  0  0  0  0  0
  -22.4206   63.8601  -25.6379 C   0  0  0  0  0  0  0  0  0  0  0  0
  -23.1723   67.3066  -28.0542 C   0  0  0  0  0  0  0  0  0  0  0  0
  -22.4487   59.3778  -27.0737 C   0  0  0  0  0  0  0  0  0  0  0  0
  -19.9081   65.1336  -30.4170 N   0  0  0  0  0  0  0  0  0  0  0  0
  -25.7591   60.3315  -26.7809 N   0  0  0  0  0  0  0  0  0  0  0  0
  -25.4810   62.6866  -26.8130 N   0  0  0  0  0  0  0  0  0  0  0  0
  -23.3027   63.7392  -26.8017 N   0  0  0  0  0  0  0  0  0  0  0  0
  -23.7508   59.0330  -26.9212 N   0  0  0  0  0  0  0  0  0  0  0  0
  -22.0168   62.8606  -28.8242 H   0  0  0  0  0  0  0  0  0  0  0  0
  -19.8241   60.1704  -26.2393 H   0  0  0  0  0  0  0  0  0  0  0  0
  -17.6924   61.3044  -26.8706 H   0  0  0  0  0  0  0  0  0  0  0  0
  -17.7219   63.2189  -28.4746 H   0  0  0  0  0  0  0  0  0  0  0  0
  -27.3836   61.7155  -26.6962 H   0  0  0  0  0  0  0  0  0  0  0  0
  -23.4392   64.7696  -28.6248 H   0  0  0  0  0  0  0  0  0  0  0  0
  -24.7717   65.0826  -27.4366 H   0  0  0  0  0  0  0  0  0  0  0  0
  -23.3756   66.4700  -26.0892 H   0  0  0  0  0  0  0  0  0  0  0  0
  -21.0826   65.5934  -27.9099 H   0  0  0  0  0  0  0  0  0  0  0  0
  -20.9927   66.7914  -26.5462 H   0  0  0  0  0  0  0  0  0  0  0  0
  -20.4051   64.1162  -26.3406 H   0  0  0  0  0  0  0  0  0  0  0  0
  -20.9258   65.2257  -24.9788 H   0  0  0  0  0  0  0  0  0  0  0  0
  -22.0675   62.8578  -25.3539 H   0  0  0  0  0  0  0  0  0  0  0  0
  -22.9944   64.3247  -24.8225 H   0  0  0  0  0  0  0  0  0  0  0  0
  -23.3419   68.2453  -27.5064 H   0  0  0  0  0  0  0  0  0  0  0  0
  -22.2778   67.4075  -28.6865 H   0  0  0  0  0  0  0  0  0  0  0  0
  -24.0455   67.0881  -28.6865 H   0  0  0  0  0  0  0  0  0  0  0  0
  -21.6164   58.6623  -27.1464 H   0  0  0  0  0  0  0  0  0  0  0  0
  -24.1447   58.0839  -26.8507 H   0  0  0  0  0  0  0  0  0  0  0  0
  2  1  1  0
  3  4  2  0
  4  8  1  0
  5  6  2  0
  7  2  2  0
  8  9  1  0
  9 10  2  0
 10 24  1  0
 11 21  2  0
 12 22  2  0
 12 23  1  0
 13 23  1  0
 13 14  1  0
 14 15  1  0
 14 18  1  0
 15 16  1  0
 16 17  1  0
 17 23  1  0
 24 19  1  0
  2  3  1  0
  4  5  1  0
  6  7  1  0
 10 21  1  0
 11 22  1  0
 12  9  1  0
 19  8  2  0
  1 20  3  0
  3 25  1  0
  5 26  1  0
  6 27  1  0
  7 28  1  0
 11 29  1  0
 13 30  1  0
 13 31  1  0
 14 32  1  0
 15 33  1  0
 15 34  1  0
 16 35  1  0
 16 36  1  0
 17 37  1  0
 17 38  1  0
 18 39  1  0
 18 40  1  0
 18 41  1  0
 19 42  1  0
 24 43  1  0
M  END
>  <rmsd>  (33) 
0.372293442

$$$$
CHEMBL4468002
     RDKit          3D

 54 58  0  0  0  0  0  0  0  0999 V2000
  -23.4159   61.7822  -31.6010 C   0  0  0  0  0  0  0  0  0  0  0  0
  -22.0179   62.0300  -31.0362 C   0  0  0  0  0  0  0  0  0  0  0  0
  -22.0206   63.0573  -29.8905 C   0  0  0  0  0  0  0  0  0  0  0  0
  -23.4219   63.3515  -29.3383 C   0  0  0  0  0  0  0  0  0  0  0  0
  -24.3377   61.2918  -30.4827 C   0  0  0  0  0  0  0  0  0  0  0  0
  -24.7959   61.7300  -28.0191 C   0  0  0  0  0  0  0  0  0  0  0  0
  -25.2709   62.2529  -25.7296 C   0  0  0  0  0  0  0  0  0  0  0  0
  -25.9507   60.1922  -26.5942 C   0  0  0  0  0  0  0  0  0  0  0  0
  -25.4251   60.4928  -27.8140 C   0  0  0  0  0  0  0  0  0  0  0  0
  -25.6518   59.4106  -28.6337 C   0  0  0  0  0  0  0  0  0  0  0  0
  -26.3311   58.4981  -27.8212 C   0  0  0  0  0  0  0  0  0  0  0  0
  -21.0866   62.6346  -28.7996 C   0  0  0  0  0  0  0  0  0  0  0  0
  -21.3099   61.4566  -28.0667 C   0  0  0  0  0  0  0  0  0  0  0  0
  -20.4326   61.0739  -27.0481 C   0  0  0  0  0  0  0  0  0  0  0  0
  -19.3148   61.8763  -26.7709 C   0  0  0  0  0  0  0  0  0  0  0  0
  -19.0880   63.0511  -27.4956 C   0  0  0  0  0  0  0  0  0  0  0  0
  -19.9729   63.4318  -28.5074 C   0  0  0  0  0  0  0  0  0  0  0  0
  -19.9660   59.3554  -25.2060 C   0  0  0  0  0  0  0  0  0  0  0  0
  -19.6503   57.3758  -23.6183 C   0  0  0  0  0  0  0  0  0  0  0  0
  -20.1677   56.1498  -23.1840 C   0  0  0  0  0  0  0  0  0  0  0  0
  -18.4340   55.9403  -21.5715 C   0  0  0  0  0  0  0  0  0  0  0  0
  -17.8806   57.1541  -21.9763 C   0  0  0  0  0  0  0  0  0  0  0  0
  -18.4951   57.8722  -23.0035 C   0  0  0  0  0  0  0  0  0  0  0  0
  -24.2173   62.1243  -29.2787 N   0  0  0  0  0  0  0  0  0  0  0  0
  -24.7358   62.5803  -26.9470 N   0  0  0  0  0  0  0  0  0  0  0  0
  -25.8872   61.0496  -25.5468 N   0  0  0  0  0  0  0  0  0  0  0  0
  -26.5162   58.9785  -26.5693 N   0  0  0  0  0  0  0  0  0  0  0  0
  -20.6946   59.8572  -26.3326 N   0  0  0  0  0  0  0  0  0  0  0  0
  -20.3066   58.0646  -24.6906 N   0  0  0  0  0  0  0  0  0  0  0  0
  -19.5578   55.4667  -22.1775 N   0  0  0  0  0  0  0  0  0  0  0  0
  -19.0542   60.0434  -24.6695 O   0  0  0  0  0  0  0  0  0  0  0  0
  -23.8135   62.7184  -32.0199 H   0  0  0  0  0  0  0  0  0  0  0  0
  -23.3620   61.0203  -32.3926 H   0  0  0  0  0  0  0  0  0  0  0  0
  -21.6168   61.0787  -30.6565 H   0  0  0  0  0  0  0  0  0  0  0  0
  -21.3957   62.4351  -31.8478 H   0  0  0  0  0  0  0  0  0  0  0  0
  -21.6616   64.0042  -30.3201 H   0  0  0  0  0  0  0  0  0  0  0  0
  -23.3311   63.7735  -28.3265 H   0  0  0  0  0  0  0  0  0  0  0  0
  -23.9236   64.0687  -30.0046 H   0  0  0  0  0  0  0  0  0  0  0  0
  -24.0704   60.2555  -30.2284 H   0  0  0  0  0  0  0  0  0  0  0  0
  -25.3759   61.3530  -30.8409 H   0  0  0  0  0  0  0  0  0  0  0  0
  -25.2033   62.9648  -24.8937 H   0  0  0  0  0  0  0  0  0  0  0  0
  -25.3638   59.2909  -29.6886 H   0  0  0  0  0  0  0  0  0  0  0  0
  -26.6739   57.5088  -28.1586 H   0  0  0  0  0  0  0  0  0  0  0  0
  -22.1838   60.8294  -28.2969 H   0  0  0  0  0  0  0  0  0  0  0  0
  -18.6123   61.5793  -25.9783 H   0  0  0  0  0  0  0  0  0  0  0  0
  -18.2117   63.6760  -27.2685 H   0  0  0  0  0  0  0  0  0  0  0  0
  -19.7949   64.3575  -29.0744 H   0  0  0  0  0  0  0  0  0  0  0  0
  -21.0705   55.7371  -23.6580 H   0  0  0  0  0  0  0  0  0  0  0  0
  -17.9623   55.3644  -20.7616 H   0  0  0  0  0  0  0  0  0  0  0  0
  -16.9716   57.5409  -21.4925 H   0  0  0  0  0  0  0  0  0  0  0  0
  -18.0697   58.8322  -23.3311 H   0  0  0  0  0  0  0  0  0  0  0  0
  -26.9853   58.5158  -25.7776 H   0  0  0  0  0  0  0  0  0  0  0  0
  -21.4866   59.2874  -26.6627 H   0  0  0  0  0  0  0  0  0  0  0  0
  -21.1018   57.5829  -25.1338 H   0  0  0  0  0  0  0  0  0  0  0  0
  1  2  1  0
  2  3  1  0
  3  4  1  0
  3 12  1  0
  4 24  1  0
  5 24  1  0
  5  1  1  0
  7 25  2  0
  8 26  2  0
  9 10  1  0
  9  6  2  0
 11 27  1  0
 13 14  2  0
 14 28  1  0
 15 16  2  0
 17 12  2  0
 18 29  1  0
 20 30  2  0
 21 22  2  0
 23 19  2  0
 24  6  1  0
 27  8  1  0
 28 18  1  0
 29 19  1  0
  6 25  1  0
  7 26  1  0
  8  9  1  0
 10 11  2  0
 12 13  1  0
 14 15  1  0
 16 17  1  0
 18 31  2  0
 19 20  1  0
 21 30  1  0
 22 23  1  0
  1 32  1  0
  1 33  1  0
  2 34  1  0
  2 35  1  0
  3 36  1  0
  4 37  1  0
  4 38  1  0
  5 39  1  0
  5 40  1  0
  7 41  1  0
 10 42  1  0
 11 43  1  0
 13 44  1  0
 15 45  1  0
 16 46  1  0
 17 47  1  0
 20 48  1  0
 21 49  1  0
 22 50  1  0
 23 51  1  0
 27 52  1  0
 28 53  1  0
 29 54  1  0
M  END
>  <rmsd>  (34) 
0.340848774

$$$$
CHEMBL585734
     RDKit          3D

 63 66  0  0  0  0  0  0  0  0999 V2000
  -26.6512   59.6200  -30.0977 C   0  0  0  0  0  0  0  0  0  0  0  0
  -26.6169   59.6327  -28.6100 C   0  0  0  0  0  0  0  0  0  0  0  0
  -27.2069   58.6790  -27.7881 C   0  0  0  0  0  0  0  0  0  0  0  0
  -26.4069   60.1983  -26.5086 C   0  0  0  0  0  0  0  0  0  0  0  0
  -25.4644   62.1401  -25.6099 C   0  0  0  0  0  0  0  0  0  0  0  0
  -25.4348   61.8162  -27.9770 C   0  0  0  0  0  0  0  0  0  0  0  0
  -25.0050   63.7016  -29.5623 C   0  0  0  0  0  0  0  0  0  0  0  0
  -23.5759   64.1971  -29.3917 C   0  0  0  0  0  0  0  0  0  0  0  0
  -21.4810   64.0018  -30.6848 C   0  0  0  0  0  0  0  0  0  0  0  0
  -20.5615   65.6737  -32.1031 C   0  0  0  0  0  0  0  0  0  0  0  0
  -19.7808   62.8922  -29.1314 C   0  0  0  0  0  0  0  0  0  0  0  0
  -20.5783   62.9727  -27.9803 C   0  0  0  0  0  0  0  0  0  0  0  0
  -20.1720   62.3522  -26.7971 C   0  0  0  0  0  0  0  0  0  0  0  0
  -18.9614   61.6562  -26.7541 C   0  0  0  0  0  0  0  0  0  0  0  0
  -18.1471   61.5800  -27.8926 C   0  0  0  0  0  0  0  0  0  0  0  0
  -16.8692   60.8482  -27.8469 C   0  0  0  0  0  0  0  0  0  0  0  0
  -15.1875   59.4994  -26.5138 C   0  0  0  0  0  0  0  0  0  0  0  0
  -15.1960   58.6827  -25.2390 C   0  0  0  0  0  0  0  0  0  0  0  0
  -14.0289   60.4781  -26.4700 C   0  0  0  0  0  0  0  0  0  0  0  0
  -18.5633   62.2068  -29.0765 C   0  0  0  0  0  0  0  0  0  0  0  0
  -22.7444   61.8861  -30.0187 C   0  0  0  0  0  0  0  0  0  0  0  0
  -21.9622   61.1626  -31.1056 C   0  0  0  0  0  0  0  0  0  0  0  0
  -24.2004   61.4324  -30.1178 C   0  0  0  0  0  0  0  0  0  0  0  0
  -26.0992   60.6003  -27.7753 C   0  0  0  0  0  0  0  0  0  0  0  0
  -27.0728   59.0308  -26.4850 N   0  0  0  0  0  0  0  0  0  0  0  0
  -26.1008   60.9475  -25.4221 N   0  0  0  0  0  0  0  0  0  0  0  0
  -25.1404   62.5636  -26.8708 N   0  0  0  0  0  0  0  0  0  0  0  0
  -25.0436   62.2736  -29.2789 N   0  0  0  0  0  0  0  0  0  0  0  0
  -22.6480   63.3546  -30.1492 N   0  0  0  0  0  0  0  0  0  0  0  0
  -21.6372   64.9916  -31.5114 N   0  0  0  0  0  0  0  0  0  0  0  0
  -19.6753   66.2361  -32.5913 N   0  0  0  0  0  0  0  0  0  0  0  0
  -20.1592   63.5399  -30.3518 N   0  0  0  0  0  0  0  0  0  0  0  0
  -16.4447   60.2228  -26.6307 N   0  0  0  0  0  0  0  0  0  0  0  0
  -16.1509   60.7678  -28.8812 O   0  0  0  0  0  0  0  0  0  0  0  0
  -27.6319   59.2569  -30.4388 H   0  0  0  0  0  0  0  0  0  0  0  0
  -26.4854   60.6391  -30.4770 H   0  0  0  0  0  0  0  0  0  0  0  0
  -25.8617   58.9546  -30.4770 H   0  0  0  0  0  0  0  0  0  0  0  0
  -27.7109   57.7684  -28.1441 H   0  0  0  0  0  0  0  0  0  0  0  0
  -25.2099   62.7657  -24.7417 H   0  0  0  0  0  0  0  0  0  0  0  0
  -25.3383   63.8827  -30.5948 H   0  0  0  0  0  0  0  0  0  0  0  0
  -25.6716   64.2380  -28.8710 H   0  0  0  0  0  0  0  0  0  0  0  0
  -23.5055   65.2324  -29.7568 H   0  0  0  0  0  0  0  0  0  0  0  0
  -23.3083   64.1524  -28.3257 H   0  0  0  0  0  0  0  0  0  0  0  0
  -21.5279   63.5271  -28.0097 H   0  0  0  0  0  0  0  0  0  0  0  0
  -20.8049   62.4114  -25.8993 H   0  0  0  0  0  0  0  0  0  0  0  0
  -18.6455   61.1653  -25.8218 H   0  0  0  0  0  0  0  0  0  0  0  0
  -15.0709   58.8362  -27.3836 H   0  0  0  0  0  0  0  0  0  0  0  0
  -15.1890   59.3581  -24.3708 H   0  0  0  0  0  0  0  0  0  0  0  0
  -16.1007   58.0577  -25.2100 H   0  0  0  0  0  0  0  0  0  0  0  0
  -14.3045   58.0390  -25.2100 H   0  0  0  0  0  0  0  0  0  0  0  0
  -13.7718   60.6953  -25.4228 H   0  0  0  0  0  0  0  0  0  0  0  0
  -13.1579   60.0382  -26.9777 H   0  0  0  0  0  0  0  0  0  0  0  0
  -14.3171   61.4104  -26.9777 H   0  0  0  0  0  0  0  0  0  0  0  0
  -17.9251   62.1586  -29.9712 H   0  0  0  0  0  0  0  0  0  0  0  0
  -22.3208   61.6346  -29.0352 H   0  0  0  0  0  0  0  0  0  0  0  0
  -21.2301   60.4854  -30.6414 H   0  0  0  0  0  0  0  0  0  0  0  0
  -22.6555   60.5804  -31.7304 H   0  0  0  0  0  0  0  0  0  0  0  0
  -21.4357   61.8991  -31.7304 H   0  0  0  0  0  0  0  0  0  0  0  0
  -24.5351   61.5085  -31.1629 H   0  0  0  0  0  0  0  0  0  0  0  0
  -24.2773   60.3897  -29.7759 H   0  0  0  0  0  0  0  0  0  0  0  0
  -27.4079   58.5160  -25.6582 H   0  0  0  0  0  0  0  0  0  0  0  0
  -19.4197   63.6882  -31.0532 H   0  0  0  0  0  0  0  0  0  0  0  0
  -17.0551   60.2877  -25.8036 H   0  0  0  0  0  0  0  0  0  0  0  0
  1  2  1  0
  3 25  1  0
  5 26  2  0
  6 27  2  0
  6 28  1  0
  7 28  1  0
  7  8  1  0
  8 29  1  0
  9 32  1  0
 12 13  2  0
 14 15  2  0
 15 16  1  0
 16 33  1  0
 17 33  1  0
 17 18  1  0
 17 19  1  0
 20 11  2  0
 21 29  1  0
 21 22  1  0
 21 23  1  0
 23 28  1  0
 24  2  1  0
 24  4  2  0
 25  4  1  0
 29  9  1  0
 30 10  1  0
 32 11  1  0
  2  3  2  0
  4 26  1  0
  5 27  1  0
  6 24  1  0
  9 30  2  0
 11 12  1  0
 13 14  1  0
 15 20  1  0
 16 34  2  0
 10 31  3  0
  1 35  1  0
  1 36  1  0
  1 37  1  0
  3 38  1  0
  5 39  1  0
  7 40  1  0
  7 41  1  0
  8 42  1  0
  8 43  1  0
 12 44  1  0
 13 45  1  0
 14 46  1  0
 17 47  1  0
 18 48  1  0
 18 49  1  0
 18 50  1  0
 19 51  1  0
 19 52  1  0
 19 53  1  0
 20 54  1  0
 21 55  1  0
 22 56  1  0
 22 57  1  0
 22 58  1  0
 23 59  1  0
 23 60  1  0
 25 61  1  0
 32 62  1  0
 33 63  1  0
M  END
>  <rmsd>  (35) 
0.761379421

$$$$
CHEMBL3593766
     RDKit          3D

 49 52  0  0  0  0  0  0  0  0999 V2000
  -25.5886   61.6555  -29.1589 C   0  0  0  0  0  0  0  0  0  0  0  0
  -26.5676   62.6863  -29.0555 C   0  0  0  0  0  0  0  0  0  0  0  0
  -26.7210   63.3693  -27.8261 C   0  0  0  0  0  0  0  0  0  0  0  0
  -25.0390   62.0701  -26.8433 C   0  0  0  0  0  0  0  0  0  0  0  0
  -24.8406   61.3729  -27.9998 C   0  0  0  0  0  0  0  0  0  0  0  0
  -23.8620   60.4415  -27.7324 C   0  0  0  0  0  0  0  0  0  0  0  0
  -23.5177   60.6508  -26.3979 C   0  0  0  0  0  0  0  0  0  0  0  0
  -27.4384   63.0912  -30.1876 C   0  0  0  0  0  0  0  0  0  0  0  0
  -24.3479   60.0469  -30.8271 C   0  0  0  0  0  0  0  0  0  0  0  0
  -24.4512   58.6889  -30.1322 C   0  0  0  0  0  0  0  0  0  0  0  0
  -23.2904   57.7736  -30.5397 C   0  0  0  0  0  0  0  0  0  0  0  0
  -21.9692   58.5337  -30.7365 C   0  0  0  0  0  0  0  0  0  0  0  0
  -22.9558   60.6917  -30.7357 C   0  0  0  0  0  0  0  0  0  0  0  0
  -20.6827   60.4204  -30.1815 C   0  0  0  0  0  0  0  0  0  0  0  0
  -20.3450   61.1995  -28.9537 C   0  0  0  0  0  0  0  0  0  0  0  0
  -19.3110   60.7634  -28.1190 C   0  0  0  0  0  0  0  0  0  0  0  0
  -18.9908   61.4847  -26.9645 C   0  0  0  0  0  0  0  0  0  0  0  0
  -19.7025   62.6449  -26.6446 C   0  0  0  0  0  0  0  0  0  0  0  0
  -20.7332   63.0862  -27.4800 C   0  0  0  0  0  0  0  0  0  0  0  0
  -21.0530   62.3655  -28.6343 C   0  0  0  0  0  0  0  0  0  0  0  0
  -25.9591   63.0557  -26.7412 N   0  0  0  0  0  0  0  0  0  0  0  0
  -24.2432   61.6532  -25.8497 N   0  0  0  0  0  0  0  0  0  0  0  0
  -28.3725   64.1554  -30.0246 N   0  0  0  0  0  0  0  0  0  0  0  0
  -25.4045   60.9658  -30.4119 N   0  0  0  0  0  0  0  0  0  0  0  0
  -22.0004   59.8204  -30.0458 N   0  0  0  0  0  0  0  0  0  0  0  0
  -27.3741   62.5091  -31.3021 O   0  0  0  0  0  0  0  0  0  0  0  0
  -27.4708   64.1700  -27.7445 H   0  0  0  0  0  0  0  0  0  0  0  0
  -23.4429   59.6943  -28.4224 H   0  0  0  0  0  0  0  0  0  0  0  0
  -22.7524   60.0737  -25.8582 H   0  0  0  0  0  0  0  0  0  0  0  0
  -24.5015   59.8322  -31.8950 H   0  0  0  0  0  0  0  0  0  0  0  0
  -24.4254   58.8393  -29.0428 H   0  0  0  0  0  0  0  0  0  0  0  0
  -25.3958   58.2122  -30.4330 H   0  0  0  0  0  0  0  0  0  0  0  0
  -23.1467   57.0180  -29.7533 H   0  0  0  0  0  0  0  0  0  0  0  0
  -23.5544   57.3158  -31.5045 H   0  0  0  0  0  0  0  0  0  0  0  0
  -21.1426   57.9292  -30.3348 H   0  0  0  0  0  0  0  0  0  0  0  0
  -21.8250   58.7154  -31.8118 H   0  0  0  0  0  0  0  0  0  0  0  0
  -23.0373   61.6396  -30.1835 H   0  0  0  0  0  0  0  0  0  0  0  0
  -22.5885   60.8623  -31.7584 H   0  0  0  0  0  0  0  0  0  0  0  0
  -19.9347   59.6269  -30.3261 H   0  0  0  0  0  0  0  0  0  0  0  0
  -20.6828   61.0971  -31.0487 H   0  0  0  0  0  0  0  0  0  0  0  0
  -18.7490   59.8520  -28.3709 H   0  0  0  0  0  0  0  0  0  0  0  0
  -18.1787   61.1392  -26.3079 H   0  0  0  0  0  0  0  0  0  0  0  0
  -19.4514   63.2107  -25.7353 H   0  0  0  0  0  0  0  0  0  0  0  0
  -21.2920   63.9998  -27.2291 H   0  0  0  0  0  0  0  0  0  0  0  0
  -21.8619   62.7145  -29.2930 H   0  0  0  0  0  0  0  0  0  0  0  0
  -24.1944   62.0140  -24.8862 H   0  0  0  0  0  0  0  0  0  0  0  0
  -28.9763   64.4356  -30.8106 H   0  0  0  0  0  0  0  0  0  0  0  0
  -28.4438   64.6442  -29.1208 H   0  0  0  0  0  0  0  0  0  0  0  0
  -26.1279   61.1490  -31.1218 H   0  0  0  0  0  0  0  0  0  0  0  0
  1 24  1  0
  2  3  2  0
  2  8  1  0
  4 21  2  0
  5  6  1  0
  5  1  2  0
  7 22  1  0
  8 23  1  0
  9 24  1  0
  9 10  1  0
 10 11  1  0
 11 12  1  0
 12 25  1  0
 13 25  1  0
 13  9  1  0
 14 25  1  0
 14 15  1  0
 16 17  2  0
 18 19  2  0
 20 15  2  0
 22  4  1  0
  1  2  1  0
  3 21  1  0
  4  5  1  0
  6  7  2  0
  8 26  2  0
 15 16  1  0
 17 18  1  0
 19 20  1  0
  3 27  1  0
  6 28  1  0
  7 29  1  0
  9 30  1  0
 10 31  1  0
 10 32  1  0
 11 33  1  0
 11 34  1  0
 12 35  1  0
 12 36  1  0
 13 37  1  0
 13 38  1  0
 14 39  1  0
 14 40  1  0
 16 41  1  0
 17 42  1  0
 18 43  1  0
 19 44  1  0
 20 45  1  0
 22 46  1  0
 23 47  1  0
 23 48  1  0
 24 49  1  0
M  END
>  <rmsd>  (36) 
0.699363828

$$$$
CHEMBL4460419
     RDKit          3D

 54 58  0  0  0  0  0  0  0  0999 V2000
  -23.4041   62.1078  -31.5909 C   0  0  0  0  0  0  0  0  0  0  0  0
  -21.9961   62.3304  -31.0413 C   0  0  0  0  0  0  0  0  0  0  0  0
  -21.9814   63.2478  -29.8044 C   0  0  0  0  0  0  0  0  0  0  0  0
  -23.3775   63.5028  -29.2191 C   0  0  0  0  0  0  0  0  0  0  0  0
  -24.2983   61.5246  -30.4965 C   0  0  0  0  0  0  0  0  0  0  0  0
  -24.7452   61.7935  -28.0078 C   0  0  0  0  0  0  0  0  0  0  0  0
  -25.3670   62.2161  -25.7359 C   0  0  0  0  0  0  0  0  0  0  0  0
  -25.7083   60.0882  -26.6357 C   0  0  0  0  0  0  0  0  0  0  0  0
  -25.1969   60.4781  -27.8341 C   0  0  0  0  0  0  0  0  0  0  0  0
  -25.2198   59.3814  -28.6675 C   0  0  0  0  0  0  0  0  0  0  0  0
  -25.7729   58.3658  -27.8845 C   0  0  0  0  0  0  0  0  0  0  0  0
  -21.0461   62.7144  -28.7634 C   0  0  0  0  0  0  0  0  0  0  0  0
  -21.2752   61.4730  -28.1498 C   0  0  0  0  0  0  0  0  0  0  0  0
  -20.3999   60.9862  -27.1747 C   0  0  0  0  0  0  0  0  0  0  0  0
  -19.2796   61.7506  -26.8175 C   0  0  0  0  0  0  0  0  0  0  0  0
  -19.0448   62.9871  -27.4262 C   0  0  0  0  0  0  0  0  0  0  0  0
  -19.9279   63.4688  -28.3965 C   0  0  0  0  0  0  0  0  0  0  0  0
  -19.9230   59.0653  -25.5425 C   0  0  0  0  0  0  0  0  0  0  0  0
  -19.7827   57.0098  -24.0134 C   0  0  0  0  0  0  0  0  0  0  0  0
  -18.7351   57.5068  -23.2231 C   0  0  0  0  0  0  0  0  0  0  0  0
  -18.2222   56.7236  -22.1876 C   0  0  0  0  0  0  0  0  0  0  0  0
  -18.7548   55.4566  -21.9466 C   0  0  0  0  0  0  0  0  0  0  0  0
  -19.7994   54.9932  -22.7495 C   0  0  0  0  0  0  0  0  0  0  0  0
  -24.1691   62.2720  -29.2388 N   0  0  0  0  0  0  0  0  0  0  0  0
  -24.8433   62.6314  -26.9306 N   0  0  0  0  0  0  0  0  0  0  0  0
  -25.8025   60.9328  -25.5814 N   0  0  0  0  0  0  0  0  0  0  0  0
  -26.0722   58.7994  -26.6348 N   0  0  0  0  0  0  0  0  0  0  0  0
  -20.6766   59.7127  -26.5752 N   0  0  0  0  0  0  0  0  0  0  0  0
  -20.3539   57.7788  -25.0812 N   0  0  0  0  0  0  0  0  0  0  0  0
  -20.2862   55.7718  -23.7533 N   0  0  0  0  0  0  0  0  0  0  0  0
  -18.8986   59.6131  -25.0542 O   0  0  0  0  0  0  0  0  0  0  0  0
  -23.8202   63.0679  -31.9301 H   0  0  0  0  0  0  0  0  0  0  0  0
  -23.3583   61.4057  -32.4365 H   0  0  0  0  0  0  0  0  0  0  0  0
  -21.5687   61.3560  -30.7623 H   0  0  0  0  0  0  0  0  0  0  0  0
  -21.4053   62.8223  -31.8280 H   0  0  0  0  0  0  0  0  0  0  0  0
  -21.6144   64.2272  -30.1449 H   0  0  0  0  0  0  0  0  0  0  0  0
  -23.2774   63.8533  -28.1812 H   0  0  0  0  0  0  0  0  0  0  0  0
  -23.8865   64.2653  -29.8269 H   0  0  0  0  0  0  0  0  0  0  0  0
  -24.0110   60.4774  -30.3208 H   0  0  0  0  0  0  0  0  0  0  0  0
  -25.3435   61.5936  -30.8324 H   0  0  0  0  0  0  0  0  0  0  0  0
  -25.4370   62.9219  -24.8951 H   0  0  0  0  0  0  0  0  0  0  0  0
  -24.8799   59.3197  -29.7118 H   0  0  0  0  0  0  0  0  0  0  0  0
  -25.9449   57.3386  -28.2385 H   0  0  0  0  0  0  0  0  0  0  0  0
  -22.1530   60.8767  -28.4394 H   0  0  0  0  0  0  0  0  0  0  0  0
  -18.5820   61.3753  -26.0543 H   0  0  0  0  0  0  0  0  0  0  0  0
  -18.1642   63.5814  -27.1412 H   0  0  0  0  0  0  0  0  0  0  0  0
  -19.7427   64.4432  -28.8722 H   0  0  0  0  0  0  0  0  0  0  0  0
  -18.3208   58.5069  -23.4182 H   0  0  0  0  0  0  0  0  0  0  0  0
  -17.4004   57.1042  -21.5633 H   0  0  0  0  0  0  0  0  0  0  0  0
  -18.3569   54.8306  -21.1344 H   0  0  0  0  0  0  0  0  0  0  0  0
  -20.2294   53.9968  -22.5699 H   0  0  0  0  0  0  0  0  0  0  0  0
  -26.4855   58.2600  -25.8608 H   0  0  0  0  0  0  0  0  0  0  0  0
  -21.5052   59.2101  -26.9242 H   0  0  0  0  0  0  0  0  0  0  0  0
  -21.1599   57.3617  -25.5684 H   0  0  0  0  0  0  0  0  0  0  0  0
  1  2  1  0
  2  3  1  0
  3  4  1  0
  3 12  1  0
  4 24  1  0
  5 24  1  0
  5  1  1  0
  7 25  2  0
  8 26  2  0
  9 10  1  0
  9  6  2  0
 11 27  1  0
 13 14  2  0
 14 28  1  0
 15 16  2  0
 17 12  2  0
 18 29  1  0
 19 30  2  0
 20 21  2  0
 22 23  2  0
 24  6  1  0
 27  8  1  0
 28 18  1  0
 29 19  1  0
  6 25  1  0
  7 26  1  0
  8  9  1  0
 10 11  2  0
 12 13  1  0
 14 15  1  0
 16 17  1  0
 18 31  2  0
 19 20  1  0
 21 22  1  0
 23 30  1  0
  1 32  1  0
  1 33  1  0
  2 34  1  0
  2 35  1  0
  3 36  1  0
  4 37  1  0
  4 38  1  0
  5 39  1  0
  5 40  1  0
  7 41  1  0
 10 42  1  0
 11 43  1  0
 13 44  1  0
 15 45  1  0
 16 46  1  0
 17 47  1  0
 20 48  1  0
 21 49  1  0
 22 50  1  0
 23 51  1  0
 27 52  1  0
 28 53  1  0
 29 54  1  0
M  END
>  <rmsd>  (37) 
0.273326337

$$$$
CHEMBL78377
     RDKit          3D

 52 55  0  0  0  0  0  0  0  0999 V2000
  -29.2598   63.0576  -26.1397 C   0  0  0  0  0  0  0  0  0  0  0  0
  -27.9021   62.4871  -26.3589 C   0  0  0  0  0  0  0  0  0  0  0  0
  -25.8124   62.3599  -26.7361 C   0  0  0  0  0  0  0  0  0  0  0  0
  -23.6130   61.6361  -27.1109 C   0  0  0  0  0  0  0  0  0  0  0  0
  -22.1952   61.9305  -27.3912 C   0  0  0  0  0  0  0  0  0  0  0  0
  -21.2652   60.8874  -27.5174 C   0  0  0  0  0  0  0  0  0  0  0  0
  -19.9214   61.1658  -27.7835 C   0  0  0  0  0  0  0  0  0  0  0  0
  -19.4968   62.4894  -27.9257 C   0  0  0  0  0  0  0  0  0  0  0  0
  -20.4157   63.5347  -27.8019 C   0  0  0  0  0  0  0  0  0  0  0  0
  -21.7595   63.2564  -27.5358 C   0  0  0  0  0  0  0  0  0  0  0  0
  -25.3342   60.0236  -26.7119 C   0  0  0  0  0  0  0  0  0  0  0  0
  -24.8480   57.5357  -26.7333 C   0  0  0  0  0  0  0  0  0  0  0  0
  -24.4810   57.3494  -28.2005 C   0  0  0  0  0  0  0  0  0  0  0  0
  -25.6966   56.9546  -29.0292 C   0  0  0  0  0  0  0  0  0  0  0  0
  -25.4305   54.3991  -28.9022 C   0  0  0  0  0  0  0  0  0  0  0  0
  -26.3339   53.2657  -28.3919 C   0  0  0  0  0  0  0  0  0  0  0  0
  -27.6447   53.8932  -27.9030 C   0  0  0  0  0  0  0  0  0  0  0  0
  -27.4254   55.3360  -28.1085 C   0  0  0  0  0  0  0  0  0  0  0  0
  -26.2392   61.0726  -26.5939 C   0  0  0  0  0  0  0  0  0  0  0  0
  -27.5909   61.1312  -26.3494 C   0  0  0  0  0  0  0  0  0  0  0  0
  -28.5266   59.9917  -26.1267 C   0  0  0  0  0  0  0  0  0  0  0  0
  -26.8093   63.2536  -26.5974 N   0  0  0  0  0  0  0  0  0  0  0  0
  -24.5162   62.6586  -26.9926 N   0  0  0  0  0  0  0  0  0  0  0  0
  -24.0294   60.3357  -26.9696 N   0  0  0  0  0  0  0  0  0  0  0  0
  -25.7538   58.6645  -26.5677 N   0  0  0  0  0  0  0  0  0  0  0  0
  -26.1613   55.6251  -28.6602 N   0  0  0  0  0  0  0  0  0  0  0  0
  -28.2731   56.2225  -27.8237 O   0  0  0  0  0  0  0  0  0  0  0  0
  -29.4534   63.1389  -25.0599 H   0  0  0  0  0  0  0  0  0  0  0  0
  -29.3166   64.0557  -26.5986 H   0  0  0  0  0  0  0  0  0  0  0  0
  -30.0125   62.3997  -26.5986 H   0  0  0  0  0  0  0  0  0  0  0  0
  -21.5956   59.8441  -27.4062 H   0  0  0  0  0  0  0  0  0  0  0  0
  -19.1981   60.3428  -27.8810 H   0  0  0  0  0  0  0  0  0  0  0  0
  -18.4394   62.7084  -28.1351 H   0  0  0  0  0  0  0  0  0  0  0  0
  -20.0816   64.5767  -27.9138 H   0  0  0  0  0  0  0  0  0  0  0  0
  -22.4799   64.0820  -27.4392 H   0  0  0  0  0  0  0  0  0  0  0  0
  -23.9320   57.7197  -26.1527 H   0  0  0  0  0  0  0  0  0  0  0  0
  -25.3501   56.6244  -26.3762 H   0  0  0  0  0  0  0  0  0  0  0  0
  -24.0728   58.2935  -28.5904 H   0  0  0  0  0  0  0  0  0  0  0  0
  -23.7353   56.5439  -28.2723 H   0  0  0  0  0  0  0  0  0  0  0  0
  -26.5041   57.6808  -28.8543 H   0  0  0  0  0  0  0  0  0  0  0  0
  -25.4130   56.9477  -30.0920 H   0  0  0  0  0  0  0  0  0  0  0  0
  -25.2328   54.2768  -29.9774 H   0  0  0  0  0  0  0  0  0  0  0  0
  -24.4560   54.4011  -28.3919 H   0  0  0  0  0  0  0  0  0  0  0  0
  -26.5401   52.5562  -29.2068 H   0  0  0  0  0  0  0  0  0  0  0  0
  -25.8406   52.7210  -27.5734 H   0  0  0  0  0  0  0  0  0  0  0  0
  -28.4987   53.5356  -28.4970 H   0  0  0  0  0  0  0  0  0  0  0  0
  -27.8823   53.6375  -26.8598 H   0  0  0  0  0  0  0  0  0  0  0  0
  -28.6584   59.8312  -25.0465 H   0  0  0  0  0  0  0  0  0  0  0  0
  -29.4999   60.2216  -26.5847 H   0  0  0  0  0  0  0  0  0  0  0  0
  -28.1117   59.0817  -26.5847 H   0  0  0  0  0  0  0  0  0  0  0  0
  -26.7548   64.2804  -26.6582 H   0  0  0  0  0  0  0  0  0  0  0  0
  -26.7395   58.4752  -26.3366 H   0  0  0  0  0  0  0  0  0  0  0  0
  1  2  1  0
  2 22  1  0
  4 23  2  0
  4  5  1  0
  6  7  2  0
  8  9  2  0
 10  5  2  0
 11 24  2  0
 11 25  1  0
 12 25  1  0
 12 13  1  0
 13 14  1  0
 14 26  1  0
 15 26  1  0
 15 16  1  0
 16 17  1  0
 17 18  1  0
 18 26  1  0
 19 20  1  0
 19  3  2  0
 21 20  1  0
 22  3  1  0
  3 23  1  0
  4 24  1  0
  5  6  1  0
  7  8  1  0
  9 10  1  0
 11 19  1  0
 18 27  2  0
 20  2  2  0
  1 28  1  0
  1 29  1  0
  1 30  1  0
  6 31  1  0
  7 32  1  0
  8 33  1  0
  9 34  1  0
 10 35  1  0
 12 36  1  0
 12 37  1  0
 13 38  1  0
 13 39  1  0
 14 40  1  0
 14 41  1  0
 15 42  1  0
 15 43  1  0
 16 44  1  0
 16 45  1  0
 17 46  1  0
 17 47  1  0
 21 48  1  0
 21 49  1  0
 21 50  1  0
 22 51  1  0
 25 52  1  0
M  END
>  <rmsd>  (38) 
0.45043236

$$$$
